<?xml version="1.0" encoding="UTF-8"?>

<!-- generated on 2022-10-26 18:16:01.643439 by randomTrips.py v1_14_1+0000-f654d7b963e
<configuration>
    <end value="11942"/>
    <insertion-rate value="5200.0"/>
    <lanes value="True"/>
    <net-file value="bagatoiruu/cleared.net.xml"/>
    <route-file value="bagatoiruu/cleared.rou.xml"/>
</configuration>
-->

<routes xmlns:xsi="http://www.w3.org/2001/XMLSchema-instance" xsi:noNamespaceSchemaLocation="http://sumo.dlr.de/xsd/routes_file.xsd">
    <trip id="0" depart="0.00" from="243997371#4" to="-109382900#1"/>
    <trip id="1" depart="0.69" from="-362407168#25" to="-28116000#1"/>
    <trip id="2" depart="1.38" from="301187460#1" to="25744272#9"/>
    <trip id="3" depart="2.08" from="81528746#0" to="-161293759#1"/>
    <trip id="4" depart="2.77" from="-E2" to="-111314460#2"/>
    <trip id="5" depart="3.46" from="-27850585#5" to="111314533#1"/>
    <trip id="6" depart="4.15" from="-111314460#1" to="-25744749#6"/>
    <trip id="7" depart="4.85" from="25744272#1" to="158493265#0"/>
    <trip id="8" depart="5.54" from="-27850585#8" to="241409481#4"/>
    <trip id="9" depart="6.23" from="362407168#8" to="-1057540305#0"/>
    <trip id="10" depart="6.92" from="362407168#7" to="27850585#16"/>
    <trip id="11" depart="7.62" from="-82443595#2" to="-243997372#0"/>
    <trip id="12" depart="8.31" from="908510345#1" to="-82443595#8"/>
    <trip id="13" depart="9.00" from="-161293771#2" to="-161293789#2"/>
    <trip id="14" depart="9.69" from="388104998#2" to="242436518#2"/>
    <trip id="15" depart="10.38" from="362407168#7" to="301187460#2"/>
    <trip id="16" depart="11.08" from="111314589#2" to="908510345#5"/>
    <trip id="17" depart="11.77" from="-908510344#1" to="158632811#0"/>
    <trip id="18" depart="12.46" from="376274881#2" to="243997371#1"/>
    <trip id="19" depart="13.15" from="640058998#1" to="162385502#0"/>
    <trip id="20" depart="13.85" from="27850585#10" to="-111314589#1"/>
    <trip id="21" depart="14.54" from="-362407168#10" to="-362407168#8"/>
    <trip id="22" depart="15.23" from="-158632811#0" to="-362407168#14"/>
    <trip id="23" depart="15.92" from="-161293789#3" to="-362407168#4"/>
    <trip id="24" depart="16.62" from="243997371#3" to="-908510343#9"/>
    <trip id="25" depart="17.31" from="-908510343#6" to="-27850585#17"/>
    <trip id="26" depart="18.00" from="-362407168#23" to="908510343#3"/>
    <trip id="27" depart="18.69" from="243997372#1" to="243264464#1"/>
    <trip id="28" depart="19.38" from="-25744272#11" to="301187460#2"/>
    <trip id="29" depart="20.08" from="-25744272#1" to="-908510345#3"/>
    <trip id="30" depart="20.77" from="E0" to="25744272#1"/>
    <trip id="31" depart="21.46" from="155548316#1" to="25744749#4"/>
    <trip id="32" depart="22.15" from="388104998#1" to="362407168#23"/>
    <trip id="33" depart="22.85" from="-362407168#10" to="-111314469#1"/>
    <trip id="34" depart="23.54" from="-430348648#2" to="-362407168#24"/>
    <trip id="35" depart="24.23" from="-27850585#17" to="908510343#6"/>
    <trip id="36" depart="24.92" from="640067064#0" to="-640065291#2"/>
    <trip id="37" depart="25.62" from="25744272#10" to="-908510345#9"/>
    <trip id="38" depart="26.31" from="82443595#9" to="1057541825#1"/>
    <trip id="39" depart="27.00" from="-362407168#23" to="-362407168#18"/>
    <trip id="40" depart="27.69" from="155548316#3" to="-362407168#23"/>
    <trip id="41" depart="28.38" from="161293789#1" to="82443595#10"/>
    <trip id="42" depart="29.08" from="-908510345#5" to="-27850585#9"/>
    <trip id="43" depart="29.77" from="E3" to="111314589#0"/>
    <trip id="44" depart="30.46" from="-161293771#1" to="-111314589#1"/>
    <trip id="45" depart="31.15" from="-241409481#3" to="243997371#5"/>
    <trip id="46" depart="31.85" from="362407168#25" to="1057498218#2"/>
    <trip id="47" depart="32.54" from="-150152951#0" to="-908510345#4"/>
    <trip id="48" depart="33.23" from="E2" to="129230032#1"/>
    <trip id="49" depart="33.92" from="908510345#4" to="640065291#2"/>
    <trip id="50" depart="34.62" from="-1057541826#2" to="301187460#0"/>
    <trip id="51" depart="35.31" from="25744272#7" to="155548316#0"/>
    <trip id="52" depart="36.00" from="-362407168#23" to="25744272#10"/>
    <trip id="53" depart="36.69" from="-241409481#3" to="1057498219#2"/>
    <trip id="54" depart="37.38" from="1057498219#2" to="908510345#1"/>
    <trip id="55" depart="38.08" from="640065291#3" to="-362407168#23"/>
    <trip id="56" depart="38.77" from="1057541827#1" to="-25744272#7"/>
    <trip id="57" depart="39.46" from="82443595#8" to="81528712#1"/>
    <trip id="58" depart="40.15" from="-386118453" to="25744272#1"/>
    <trip id="59" depart="40.85" from="241409481#5" to="-243997371#5"/>
    <trip id="60" depart="41.54" from="362407168#16" to="155548316#1"/>
    <trip id="61" depart="42.23" from="362407168#20" to="129230032#2"/>
    <trip id="62" depart="42.92" from="-1007939125#1" to="-82443595#1"/>
    <trip id="63" depart="43.62" from="-109382900#0" to="908510343#10"/>
    <trip id="64" depart="44.31" from="81528716" to="388104998#2"/>
    <trip id="65" depart="45.00" from="-388104998#3" to="-111314589#3"/>
    <trip id="66" depart="45.69" from="81528716" to="908510343#9"/>
    <trip id="67" depart="46.38" from="-158632812#2" to="109382900#1"/>
    <trip id="68" depart="47.08" from="-155548316#1" to="362407168#18"/>
    <trip id="69" depart="47.77" from="362407168#17" to="-242436518#1"/>
    <trip id="70" depart="48.46" from="1057540305#0" to="158493282#1"/>
    <trip id="71" depart="49.15" from="-362407168#23" to="81528712#1"/>
    <trip id="72" depart="49.85" from="-E2" to="-27850585#3"/>
    <trip id="73" depart="50.54" from="111314589#2" to="301187460#2"/>
    <trip id="74" depart="51.23" from="-25744749#6" to="-640065291#0"/>
    <trip id="75" depart="51.92" from="E2" to="25744272#11"/>
    <trip id="76" depart="52.62" from="1057498218#1" to="111314589#2"/>
    <trip id="77" depart="53.31" from="-242311919#0" to="-362407168#10"/>
    <trip id="78" depart="54.00" from="-82443595#10" to="241409481#4"/>
    <trip id="79" depart="54.69" from="-362407168#10" to="-27850585#9"/>
    <trip id="80" depart="55.38" from="-155548316#2" to="243997372#0"/>
    <trip id="81" depart="56.08" from="-362407168#10" to="82443595#7"/>
    <trip id="82" depart="56.77" from="640058998#1" to="-155548316#1"/>
    <trip id="83" depart="57.46" from="-362407168#14" to="25744272#8"/>
    <trip id="84" depart="58.15" from="-27850585#2" to="-243264464#0"/>
    <trip id="85" depart="58.85" from="90810948#3" to="161293789#1"/>
    <trip id="86" depart="59.54" from="1057499912#2" to="362407168#25"/>
    <trip id="87" depart="60.23" from="362407168#7" to="-25744749#2"/>
    <trip id="88" depart="60.92" from="-161293789#1" to="1057498219#1"/>
    <trip id="89" depart="61.62" from="-E2" to="1057541826#2"/>
    <trip id="90" depart="62.31" from="301187460#0" to="25744272#9"/>
    <trip id="91" depart="63.00" from="908510345#8" to="-161293789#2"/>
    <trip id="92" depart="63.69" from="-908510345#5" to="-82443595#8"/>
    <trip id="93" depart="64.38" from="640058998#1" to="-362407168#18"/>
    <trip id="94" depart="65.08" from="-25744272#9" to="1057499912#1"/>
    <trip id="95" depart="65.77" from="-E2" to="-362407168#4"/>
    <trip id="96" depart="66.46" from="-362407168#18" to="90810948#1"/>
    <trip id="97" depart="67.15" from="1057498218#2" to="640065291#3"/>
    <trip id="98" depart="67.85" from="129230032#2" to="-111314589#2"/>
    <trip id="99" depart="68.54" from="E4" to="430348648#2"/>
    <trip id="100" depart="69.23" from="908510345#3" to="90810948#3"/>
    <trip id="101" depart="69.92" from="388104998#3" to="-25744272#11"/>
    <trip id="102" depart="70.62" from="1057541826#2" to="-27850585#4"/>
    <trip id="103" depart="71.31" from="-908510345#5" to="-111314589#3"/>
    <trip id="104" depart="72.00" from="-908510344#1" to="908510345#9"/>
    <trip id="105" depart="72.69" from="-362407168#23" to="362407168#25"/>
    <trip id="106" depart="73.38" from="1057498219#2" to="1057498218#2"/>
    <trip id="107" depart="74.08" from="908510345#1" to="E2"/>
    <trip id="108" depart="74.77" from="155548316#0" to="301187460#0"/>
    <trip id="109" depart="75.46" from="-243997371#5" to="-386118453"/>
    <trip id="110" depart="76.15" from="908510345#3" to="168901349#1"/>
    <trip id="111" depart="76.85" from="111314589#3" to="362407168#14"/>
    <trip id="112" depart="77.54" from="-111314589#3" to="241409481#3"/>
    <trip id="113" depart="78.23" from="109382900#0" to="640058998#1"/>
    <trip id="114" depart="78.92" from="-243997372#1" to="908510345#2"/>
    <trip id="115" depart="79.62" from="-158632811#0" to="-25744272#9"/>
    <trip id="116" depart="80.31" from="168901349#1" to="25744272#9"/>
    <trip id="117" depart="81.00" from="-362407168#14" to="-241409481#5"/>
    <trip id="118" depart="81.69" from="81528745#1" to="-362407168#17"/>
    <trip id="119" depart="82.38" from="168901349#1" to="243997371#3"/>
    <trip id="120" depart="83.08" from="-E0" to="241409481#3"/>
    <trip id="121" depart="83.77" from="111314533#0" to="908510343#11"/>
    <trip id="122" depart="84.46" from="-27850585#13" to="301187460#0"/>
    <trip id="123" depart="85.15" from="-362407168#15" to="-908510345#9"/>
    <trip id="124" depart="85.85" from="25744272#2" to="-388104998#1"/>
    <trip id="125" depart="86.54" from="-640065291#0" to="362407168#16"/>
    <trip id="126" depart="87.23" from="-155548316#3" to="1057541825#1"/>
    <trip id="127" depart="87.92" from="E4" to="E2"/>
    <trip id="128" depart="88.62" from="-155548316#3" to="-27850585#3"/>
    <trip id="129" depart="89.31" from="-362407168#23" to="908510343#11"/>
    <trip id="130" depart="90.00" from="81528745#0" to="81528716"/>
    <trip id="131" depart="90.69" from="-908510343#3" to="-243997372#1"/>
    <trip id="132" depart="91.38" from="376274881#3" to="27850585#3"/>
    <trip id="133" depart="92.08" from="242311919#0" to="991090020"/>
    <trip id="134" depart="92.77" from="25744272#1" to="-1057540305#0"/>
    <trip id="135" depart="93.46" from="376274881#0" to="-388104998#1"/>
    <trip id="136" depart="94.15" from="25744272#11" to="908510343#3"/>
    <trip id="137" depart="94.85" from="-243264464#1" to="-241409481#4"/>
    <trip id="138" depart="95.54" from="-168901349#1" to="158632811#1"/>
    <trip id="139" depart="96.23" from="-362407168#25" to="242461517#0"/>
    <trip id="140" depart="96.92" from="27850585#4" to="-27850585#14"/>
    <trip id="141" depart="97.62" from="243997371#3" to="-362407168#23"/>
    <trip id="142" depart="98.31" from="1057541826#3" to="82443595#7"/>
    <trip id="143" depart="99.00" from="388104998#2" to="-161293771#2"/>
    <trip id="144" depart="99.69" from="-E2" to="-362407168#4"/>
    <trip id="145" depart="100.38" from="-1007939125#2" to="362407168#20"/>
    <trip id="146" depart="101.08" from="243997371#3" to="-362407168#23"/>
    <trip id="147" depart="101.77" from="301187460#2" to="158632811#0"/>
    <trip id="148" depart="102.46" from="-E4" to="-1057540306"/>
    <trip id="149" depart="103.15" from="-158493265#0" to="81528745#1"/>
    <trip id="150" depart="103.85" from="82443595#2" to="158493265#0"/>
    <trip id="151" depart="104.54" from="376274881#3" to="241409481#3"/>
    <trip id="152" depart="105.23" from="-243997371#4" to="-242323121#1"/>
    <trip id="153" depart="105.92" from="-388104998#3" to="82443595#10"/>
    <trip id="154" depart="106.62" from="362407168#3" to="640065291#2"/>
    <trip id="155" depart="107.31" from="82443595#10" to="-27850585#2"/>
    <trip id="156" depart="108.00" from="-362407168#17" to="-162385502#0"/>
    <trip id="157" depart="108.69" from="362407168#20" to="81528745#1"/>
    <trip id="158" depart="109.38" from="-908510345#7" to="243997371#3"/>
    <trip id="159" depart="110.08" from="-243997371#5" to="908510343#10"/>
    <trip id="160" depart="110.77" from="640058998#1" to="908510345#7"/>
    <trip id="161" depart="111.46" from="362407168#8" to="81528745#1"/>
    <trip id="162" depart="112.15" from="-111314460#0" to="301187460#3"/>
    <trip id="163" depart="112.85" from="-640067064#0" to="908510343#10"/>
    <trip id="164" depart="113.54" from="362407168#5" to="640065291#3"/>
    <trip id="165" depart="114.23" from="362407168#8" to="-362407168#24"/>
    <trip id="166" depart="114.92" from="362407168#24" to="-241409481#0"/>
    <trip id="167" depart="115.62" from="640065291#2" to="640065291#2"/>
    <trip id="168" depart="116.31" from="-27850585#9" to="376274881#2"/>
    <trip id="169" depart="117.00" from="1057499911#1" to="-388104998#3"/>
    <trip id="170" depart="117.69" from="362407168#3" to="-362407168#10"/>
    <trip id="171" depart="118.38" from="-109382911" to="-25744749#3"/>
    <trip id="172" depart="119.08" from="-640065291#6" to="640065291#3"/>
    <trip id="173" depart="119.77" from="908510345#3" to="-362407168#4"/>
    <trip id="174" depart="120.46" from="243997371#5" to="-E0"/>
    <trip id="175" depart="121.15" from="908510345#7" to="150152951#1"/>
    <trip id="176" depart="121.85" from="908510343#10" to="-241409481#4"/>
    <trip id="177" depart="122.54" from="908510345#3" to="-25744272#7"/>
    <trip id="178" depart="123.23" from="908510345#10" to="-362407168#24"/>
    <trip id="179" depart="123.92" from="-168901349#2" to="1057498219#2"/>
    <trip id="180" depart="124.62" from="301187460#0" to="-640065291#2"/>
    <trip id="181" depart="125.31" from="241409481#4" to="111314589#1"/>
    <trip id="182" depart="126.00" from="-908510345#10" to="161293789#4"/>
    <trip id="183" depart="126.69" from="-362407168#19" to="27850585#8"/>
    <trip id="184" depart="127.38" from="-1007939125#1" to="90810948#3"/>
    <trip id="185" depart="128.08" from="111314589#2" to="301187460#0"/>
    <trip id="186" depart="128.77" from="301187460#2" to="25744272#8"/>
    <trip id="187" depart="129.46" from="-908510343#11" to="-155548316#1"/>
    <trip id="188" depart="130.15" from="25744272#11" to="-82443595#2"/>
    <trip id="189" depart="130.85" from="-430348648#2" to="60313126#2"/>
    <trip id="190" depart="131.54" from="27850585#5" to="-388104998#1"/>
    <trip id="191" depart="132.23" from="-388104998#3" to="-E4"/>
    <trip id="192" depart="132.92" from="-908510345#5" to="-386118453"/>
    <trip id="193" depart="133.62" from="-242323121#1" to="1057498218#1"/>
    <trip id="194" depart="134.31" from="908510343#10" to="25744272#9"/>
    <trip id="195" depart="135.00" from="82443595#2" to="243997371#1"/>
    <trip id="196" depart="135.69" from="-388104998#1" to="158493282#0"/>
    <trip id="197" depart="136.38" from="-1007939125#1" to="-362407168#8"/>
    <trip id="198" depart="137.08" from="1007939125#1" to="168901349#1"/>
    <trip id="199" depart="137.77" from="25744272#10" to="1057541826#1"/>
    <trip id="200" depart="138.46" from="1057498218#2" to="-27850585#4"/>
    <trip id="201" depart="139.15" from="1057499912#2" to="82443595#2"/>
    <trip id="202" depart="139.85" from="362407168#3" to="-25744272#11"/>
    <trip id="203" depart="140.54" from="-158632812#1" to="111314589#1"/>
    <trip id="204" depart="141.23" from="243997371#1" to="-82443595#7"/>
    <trip id="205" depart="141.92" from="376274881#0" to="362407168#15"/>
    <trip id="206" depart="142.62" from="25744272#2" to="-362407168#10"/>
    <trip id="207" depart="143.31" from="-25744749#5" to="-109382900#1"/>
    <trip id="208" depart="144.00" from="-362407168#16" to="1057541827#0"/>
    <trip id="209" depart="144.69" from="388104998#3" to="-155548316#2"/>
    <trip id="210" depart="145.38" from="-90876287" to="243997372#0"/>
    <trip id="211" depart="146.08" from="-25744749#3" to="27850585#15"/>
    <trip id="212" depart="146.77" from="1057541827#0" to="-362407168#17"/>
    <trip id="213" depart="147.46" from="25744272#10" to="-1057540305#0"/>
    <trip id="214" depart="148.15" from="362407168#13" to="362407168#2"/>
    <trip id="215" depart="148.85" from="-168901349#1" to="1057498218#2"/>
    <trip id="216" depart="149.54" from="-25744272#2" to="908510345#10"/>
    <trip id="217" depart="150.23" from="111314469#1" to="-111314589#2"/>
    <trip id="218" depart="150.92" from="-362407168#17" to="60313126#2"/>
    <trip id="219" depart="151.62" from="1057498219#2" to="362407168#8"/>
    <trip id="220" depart="152.31" from="25744272#12" to="991090020"/>
    <trip id="221" depart="153.00" from="241409481#0" to="908510344#1"/>
    <trip id="222" depart="153.69" from="81528746#0" to="243997371#0"/>
    <trip id="223" depart="154.38" from="27850585#5" to="111314533#1"/>
    <trip id="224" depart="155.08" from="376274881#2" to="158493282#0"/>
    <trip id="225" depart="155.77" from="82443595#1" to="362407168#13"/>
    <trip id="226" depart="156.46" from="1057499912#2" to="-362407168#20"/>
    <trip id="227" depart="157.15" from="-362407168#17" to="25744272#1"/>
    <trip id="228" depart="157.85" from="362407168#17" to="111314589#2"/>
    <trip id="229" depart="158.54" from="243997371#0" to="-362407168#3"/>
    <trip id="230" depart="159.23" from="-158493282#0" to="-362407168#7"/>
    <trip id="231" depart="159.92" from="-362407168#24" to="-640067064#0"/>
    <trip id="232" depart="160.62" from="111314589#2" to="-243997371#0"/>
    <trip id="233" depart="161.31" from="-362407168#13" to="27850585#14"/>
    <trip id="234" depart="162.00" from="27850585#13" to="-129230032#3"/>
    <trip id="235" depart="162.69" from="-908510345#8" to="155548316#3"/>
    <trip id="236" depart="163.38" from="-90876287" to="-27850585#16"/>
    <trip id="237" depart="164.08" from="-E0" to="82443595#7"/>
    <trip id="238" depart="164.77" from="161293784#0" to="27850585#15"/>
    <trip id="239" depart="165.46" from="640058998#0" to="362407168#19"/>
    <trip id="240" depart="166.15" from="-908510344#1" to="-1057540305#0"/>
    <trip id="241" depart="166.85" from="-82443595#9" to="362407168#16"/>
    <trip id="242" depart="167.54" from="60313126#1" to="908510345#1"/>
    <trip id="243" depart="168.23" from="-E0" to="362407168#14"/>
    <trip id="244" depart="168.92" from="111314589#3" to="242436518#2"/>
    <trip id="245" depart="169.62" from="-27850585#8" to="-27850585#9"/>
    <trip id="246" depart="170.31" from="1051798764" to="-111314460#1"/>
    <trip id="247" depart="171.00" from="-82443595#1" to="25744749#1"/>
    <trip id="248" depart="171.69" from="-908510345#7" to="-25744272#10"/>
    <trip id="249" depart="172.38" from="1057499912#1" to="-242323121#1"/>
    <trip id="250" depart="173.08" from="243264464#0" to="-111314460#0"/>
    <trip id="251" depart="173.77" from="-908510345#3" to="161293771#1"/>
    <trip id="252" depart="174.46" from="-111314460#1" to="25744272#10"/>
    <trip id="253" depart="175.15" from="-243264464#2" to="1057541826#1"/>
    <trip id="254" depart="175.85" from="-111314589#2" to="-908510345#3"/>
    <trip id="255" depart="176.54" from="-27850585#17" to="-82443595#10"/>
    <trip id="256" depart="177.23" from="362407168#16" to="-908510345#3"/>
    <trip id="257" depart="177.92" from="362407168#13" to="388104998#2"/>
    <trip id="258" depart="178.62" from="-362407168#18" to="-158632811#0"/>
    <trip id="259" depart="179.31" from="-109382900#0" to="155548316#1"/>
    <trip id="260" depart="180.00" from="E4" to="-908510343#10"/>
    <trip id="261" depart="180.69" from="25744272#1" to="362407168#25"/>
    <trip id="262" depart="181.38" from="25744272#1" to="362407168#16"/>
    <trip id="263" depart="182.08" from="908510343#6" to="-27850585#10"/>
    <trip id="264" depart="182.77" from="-109382900#1" to="-243997371#5"/>
    <trip id="265" depart="183.46" from="-242323121#1" to="25744272#8"/>
    <trip id="266" depart="184.15" from="158493282#0" to="-27850585#8"/>
    <trip id="267" depart="184.85" from="25744749#4" to="362407168#2"/>
    <trip id="268" depart="185.54" from="-25744272#10" to="243264464#0"/>
    <trip id="269" depart="186.23" from="362407168#10" to="-241409481#4"/>
    <trip id="270" depart="186.92" from="376274881#0" to="908510345#3"/>
    <trip id="271" depart="187.62" from="-168901349#2" to="-111314460#0"/>
    <trip id="272" depart="188.31" from="-430348648#2" to="25744272#9"/>
    <trip id="273" depart="189.00" from="908510345#1" to="-908510345#9"/>
    <trip id="274" depart="189.69" from="27850585#2" to="-158493265#0"/>
    <trip id="275" depart="190.38" from="25744272#9" to="243997371#5"/>
    <trip id="276" depart="191.08" from="-161293789#4" to="362407168#20"/>
    <trip id="277" depart="191.77" from="388104998#3" to="242436518#1"/>
    <trip id="278" depart="192.46" from="-242311919#0" to="908510345#9"/>
    <trip id="279" depart="193.15" from="362407168#23" to="-908510343#10"/>
    <trip id="280" depart="193.85" from="-E4" to="-908510345#10"/>
    <trip id="281" depart="194.54" from="109382900#1" to="-82443595#9"/>
    <trip id="282" depart="195.23" from="388104998#3" to="376274881#3"/>
    <trip id="283" depart="195.92" from="-168901349#1" to="908510345#2"/>
    <trip id="284" depart="196.62" from="243997371#3" to="388104998#2"/>
    <trip id="285" depart="197.31" from="27850585#13" to="1057498219#2"/>
    <trip id="286" depart="198.00" from="301187460#0" to="908510345#3"/>
    <trip id="287" depart="198.69" from="-362407168#24" to="376274881#1"/>
    <trip id="288" depart="199.38" from="111314589#2" to="1057541827#1"/>
    <trip id="289" depart="200.08" from="1051798764" to="301187460#2"/>
    <trip id="290" depart="200.77" from="-362407168#24" to="640058998#1"/>
    <trip id="291" depart="201.46" from="376274881#2" to="-161293759#1"/>
    <trip id="292" depart="202.15" from="81528745#0" to="-362407168#17"/>
    <trip id="293" depart="202.85" from="1057499912#1" to="243264464#2"/>
    <trip id="294" depart="203.54" from="-908510344#1" to="-111314460#1"/>
    <trip id="295" depart="204.23" from="388104998#3" to="-25744272#8"/>
    <trip id="296" depart="204.92" from="-27850585#17" to="362407168#7"/>
    <trip id="297" depart="205.62" from="-82443595#2" to="81528745#1"/>
    <trip id="298" depart="206.31" from="25744749#5" to="-362407168#4"/>
    <trip id="299" depart="207.00" from="-1057541826#1" to="908510344#1"/>
    <trip id="300" depart="207.69" from="-158632812#2" to="301187460#0"/>
    <trip id="301" depart="208.38" from="1057541826#3" to="362407168#17"/>
    <trip id="302" depart="209.08" from="25744272#9" to="25744272#10"/>
    <trip id="303" depart="209.77" from="1057541826#3" to="362407168#5"/>
    <trip id="304" depart="210.46" from="-161293771#2" to="-28116000#0"/>
    <trip id="305" depart="211.15" from="25744272#9" to="-388104998#3"/>
    <trip id="306" depart="211.85" from="161293771#2" to="1057541827#0"/>
    <trip id="307" depart="212.54" from="111314589#1" to="1057498218#2"/>
    <trip id="308" depart="213.23" from="362407168#10" to="-82443595#2"/>
    <trip id="309" depart="213.92" from="25744749#6" to="-362407168#25"/>
    <trip id="310" depart="214.62" from="-362407168#18" to="-242311919#0"/>
    <trip id="311" depart="215.31" from="-25744749#2" to="-241409481#5"/>
    <trip id="312" depart="216.00" from="111314589#1" to="362407168#18"/>
    <trip id="313" depart="216.69" from="-25744272#8" to="-27850585#5"/>
    <trip id="314" depart="217.38" from="1057541826#1" to="301187460#1"/>
    <trip id="315" depart="218.08" from="908510345#5" to="111314589#3"/>
    <trip id="316" depart="218.77" from="-362407168#5" to="-161293789#4"/>
    <trip id="317" depart="219.46" from="-25744749#3" to="-362407168#10"/>
    <trip id="318" depart="220.15" from="-25744272#7" to="-1057541826#1"/>
    <trip id="319" depart="220.85" from="111314589#1" to="-362407168#3"/>
    <trip id="320" depart="221.54" from="908510345#5" to="158632811#1"/>
    <trip id="321" depart="222.23" from="25744749#3" to="-242323121#1"/>
    <trip id="322" depart="222.92" from="640065291#0" to="109382916#3"/>
    <trip id="323" depart="223.62" from="640065291#3" to="161293789#3"/>
    <trip id="324" depart="224.31" from="1057499912#1" to="1057499911#1"/>
    <trip id="325" depart="225.00" from="-25744272#8" to="-111314589#2"/>
    <trip id="326" depart="225.69" from="908510343#11" to="1057541827#0"/>
    <trip id="327" depart="226.38" from="376274881#1" to="-E0"/>
    <trip id="328" depart="227.08" from="-158493265#0" to="243997371#5"/>
    <trip id="329" depart="227.77" from="-111314589#3" to="-243997371#4"/>
    <trip id="330" depart="228.46" from="158493265#0" to="-388104998#2"/>
    <trip id="331" depart="229.15" from="E2" to="-241409481#5"/>
    <trip id="332" depart="229.85" from="362407168#17" to="243264464#0"/>
    <trip id="333" depart="230.54" from="362407168#25" to="-362407168#10"/>
    <trip id="334" depart="231.23" from="111314533#0" to="1057499912#2"/>
    <trip id="335" depart="231.92" from="1057498218#2" to="640065291#2"/>
    <trip id="336" depart="232.62" from="E0" to="-388104998#3"/>
    <trip id="337" depart="233.31" from="242436518#2" to="243264464#2"/>
    <trip id="338" depart="234.00" from="301187460#2" to="908510344#1"/>
    <trip id="339" depart="234.69" from="-27850585#15" to="-27850585#2"/>
    <trip id="340" depart="235.38" from="25744272#11" to="-243997372#1"/>
    <trip id="341" depart="236.08" from="-25744272#12" to="-158493265#0"/>
    <trip id="342" depart="236.77" from="-1007939125#2" to="1057499912#2"/>
    <trip id="343" depart="237.46" from="168901349#1" to="-362407168#9"/>
    <trip id="344" depart="238.15" from="-362407168#13" to="27850585#5"/>
    <trip id="345" depart="238.85" from="25744749#6" to="1057499912#2"/>
    <trip id="346" depart="239.54" from="25744272#8" to="90810948#3"/>
    <trip id="347" depart="240.23" from="362407168#24" to="243997371#4"/>
    <trip id="348" depart="240.92" from="25744272#11" to="908510343#11"/>
    <trip id="349" depart="241.62" from="-E3" to="158493265#0"/>
    <trip id="350" depart="242.31" from="243997372#1" to="82443595#8"/>
    <trip id="351" depart="243.00" from="376274881#2" to="-155548316#2"/>
    <trip id="352" depart="243.69" from="-25744272#10" to="-388104998#3"/>
    <trip id="353" depart="244.38" from="362407168#13" to="161293784#0"/>
    <trip id="354" depart="245.08" from="-362407168#7" to="-242323121#0"/>
    <trip id="355" depart="245.77" from="25744272#9" to="27850585#17"/>
    <trip id="356" depart="246.46" from="908510343#11" to="111314469#1"/>
    <trip id="357" depart="247.15" from="1057541827#0" to="-158632811#0"/>
    <trip id="358" depart="247.85" from="-111314589#0" to="1057498219#1"/>
    <trip id="359" depart="248.54" from="-640065291#2" to="-362407168#19"/>
    <trip id="360" depart="249.23" from="-161293771#1" to="908510345#2"/>
    <trip id="361" depart="249.92" from="376274881#3" to="161293789#4"/>
    <trip id="362" depart="250.62" from="908510343#6" to="E4"/>
    <trip id="363" depart="251.31" from="25744272#2" to="-362407168#25"/>
    <trip id="364" depart="252.00" from="-111314589#0" to="362407168#17"/>
    <trip id="365" depart="252.69" from="1057499912#2" to="25744272#12"/>
    <trip id="366" depart="253.38" from="82443595#9" to="-25744272#8"/>
    <trip id="367" depart="254.08" from="161293789#1" to="243997372#2"/>
    <trip id="368" depart="254.77" from="1057541827#0" to="-161293771#2"/>
    <trip id="369" depart="255.46" from="-82443595#8" to="-82443595#7"/>
    <trip id="370" depart="256.15" from="25744272#12" to="640065291#2"/>
    <trip id="371" depart="256.85" from="-640065291#6" to="27850585#14"/>
    <trip id="372" depart="257.54" from="-362407168#7" to="908510343#9"/>
    <trip id="373" depart="258.23" from="362407168#9" to="158493282#1"/>
    <trip id="374" depart="258.92" from="1057498219#2" to="-640065291#2"/>
    <trip id="375" depart="259.62" from="-640065291#2" to="908510345#4"/>
    <trip id="376" depart="260.31" from="-908510345#7" to="111314589#1"/>
    <trip id="377" depart="261.00" from="908510345#9" to="25744272#2"/>
    <trip id="378" depart="261.69" from="111314589#3" to="1051798763"/>
    <trip id="379" depart="262.38" from="-25744272#9" to="-908510343#9"/>
    <trip id="380" depart="263.08" from="362407168#15" to="243997371#4"/>
    <trip id="381" depart="263.77" from="362407168#16" to="-27850585#14"/>
    <trip id="382" depart="264.46" from="129230032#2" to="90810948#3"/>
    <trip id="383" depart="265.15" from="1057498218#1" to="27850585#16"/>
    <trip id="384" depart="265.85" from="-242311919#0" to="908510345#5"/>
    <trip id="385" depart="266.54" from="241409481#5" to="-362407168#16"/>
    <trip id="386" depart="267.23" from="-243997372#1" to="158493282#1"/>
    <trip id="387" depart="267.92" from="129230032#3" to="-161293784#0"/>
    <trip id="388" depart="268.62" from="E0" to="82443595#9"/>
    <trip id="389" depart="269.31" from="1057499911#1" to="-241409481#5"/>
    <trip id="390" depart="270.00" from="376274881#3" to="111314460#2"/>
    <trip id="391" depart="270.69" from="27850585#3" to="111314589#0"/>
    <trip id="392" depart="271.38" from="-362407168#25" to="388104998#3"/>
    <trip id="393" depart="272.08" from="908510345#7" to="-362407168#17"/>
    <trip id="394" depart="272.77" from="129230032#3" to="-908510345#5"/>
    <trip id="395" depart="273.46" from="90810948#0" to="111314589#0"/>
    <trip id="396" depart="274.15" from="81528716" to="640065291#3"/>
    <trip id="397" depart="274.85" from="-362407168#3" to="362407168#4"/>
    <trip id="398" depart="275.54" from="-90876287" to="908510343#11"/>
    <trip id="399" depart="276.23" from="109382916#2" to="376274881#3"/>
    <trip id="400" depart="276.92" from="-362407168#5" to="-388104998#1"/>
    <trip id="401" depart="277.62" from="161293789#2" to="E4"/>
    <trip id="402" depart="278.31" from="1057541826#3" to="-243997371#4"/>
    <trip id="403" depart="279.00" from="111314589#2" to="-906834898#1"/>
    <trip id="404" depart="279.69" from="129230032#3" to="155548316#3"/>
    <trip id="405" depart="280.38" from="1057498219#2" to="-82443595#1"/>