<?xml version="1.0" encoding="UTF-8"?>

<!-- generated on 2022-10-26 18:16:02.836781 by randomTrips.py v1_14_1+0000-f654d7b963e
<configuration>
    <end value="11942"/>
    <insertion-rate value="5200.0"/>
    <lanes value="True"/>
    <net-file value="bagatoiruu/cleared.net.xml"/>
    <route-file value="bagatoiruu/cleared.rou.xml"/>
</configuration>
-->

<!-- generated on 2022-10-26 18:16:01 by Eclipse SUMO duarouter Version 1.14.1
<configuration xmlns:xsi="http://www.w3.org/2001/XMLSchema-instance" xsi:noNamespaceSchemaLocation="http://sumo.dlr.de/xsd/duarouterConfiguration.xsd">

    <input>
        <net-file value="bagatoiruu/cleared.net.xml"/>
        <route-files value="trips.trips.xml"/>
    </input>

    <output>
        <output-file value="bagatoiruu/cleared.rou.xml"/>
        <alternatives-output value="NUL"/>
    </output>

    <time>
        <begin value="0"/>
        <end value="11942"/>
    </time>

    <report>
        <no-warnings value="true"/>
        <ignore-errors value="true"/>
        <no-step-log value="true"/>
    </report>

</configuration>
-->

<routes xmlns:xsi="http://www.w3.org/2001/XMLSchema-instance" xsi:noNamespaceSchemaLocation="http://sumo.dlr.de/xsd/routes_file.xsd">
    <vehicle id="0" depart="0.00">
        <route edges="243997371#4 243997371#5 82443595#1 82443595#2 -25744272#2 -25744272#1 111314589#0 111314589#1 111314589#2 1051798764 109382900#0 109382900#1 -109382900#1"/>
    </vehicle>
    <vehicle id="1" depart="0.69">
        <route edges="-362407168#25 -362407168#24 -362407168#23 -640065291#3 -640065291#2 -640065291#0 -111314469#1 -243997371#5 -243997371#4 -25744749#6 -25744749#5 -25744749#4 -25744749#3 243264464#0 243264464#1 243264464#2 -28116000#1"/>
    </vehicle>
    <vehicle id="3" depart="2.08">
        <route edges="81528746#0 81528746#1 -908510343#11 -908510343#10 -908510343#9 -908510343#6 -161293784#0 161293771#2 -161293759#2 -161293759#1"/>
    </vehicle>
    <vehicle id="4" depart="2.77">
        <route edges="-E2 243997371#0 243997371#1 243997371#3 -25744749#6 -25744749#5 -25744749#4 -25744749#3 -25744749#2 -111314460#2"/>
    </vehicle>
    <vehicle id="5" depart="3.46">
        <route edges="-27850585#5 -27850585#4 -27850585#3 -27850585#2 -908510345#5 -908510345#4 -908510345#3 -908510345#2 -908510345#1 -362407168#25 -362407168#24 -362407168#23 -362407168#20 -362407168#19 -362407168#18 -111314533#1 -111314533#0 111314533#0 111314533#1"/>
    </vehicle>
    <vehicle id="6" depart="4.15">
        <route edges="-111314460#1 -111314460#0 362407168#9 362407168#10 -388104998#3 -388104998#2 -388104998#1 -243997371#5 -243997371#4 -25744749#6"/>
    </vehicle>
    <vehicle id="7" depart="4.85">
        <route edges="25744272#1 25744272#2 -82443595#2 -82443595#1 388104998#1 388104998#2 388104998#3 -362407168#10 -362407168#9 -362407168#8 -362407168#7 -362407168#5 158493265#0"/>
    </vehicle>
    <vehicle id="8" depart="5.54">
        <route edges="-27850585#8 -27850585#5 -27850585#4 -27850585#3 -27850585#2 908510345#7 908510345#8 908510345#9 908510345#10 908510343#3 -E0 908510343#6 241409481#3 241409481#4"/>
    </vehicle>
    <vehicle id="9" depart="6.23">
        <route edges="362407168#8 111314460#0 111314460#1 111314460#2 25744749#2 25744749#3 25744749#4 25744749#5 25744749#6 -243997371#3 -243997371#1 -243997371#0 E2 -1057540305#0"/>
    </vehicle>
    <vehicle id="10" depart="6.92">
        <route edges="362407168#7 362407168#8 362407168#9 362407168#10 -388104998#3 -388104998#2 -388104998#1 111314469#1 640065291#0 27850585#13 27850585#14 27850585#15 27850585#16"/>
    </vehicle>
    <vehicle id="11" depart="7.62">
        <route edges="-82443595#2 -82443595#1 111314469#1 640065291#0 640065291#2 640065291#3 -362407168#20 -362407168#19 -362407168#18 -111314533#1 243997372#0 243997372#1 243997372#2 -243997372#2 -243997372#1 -243997372#0"/>
    </vehicle>
    <vehicle id="12" depart="8.31">
        <route edges="908510345#1 908510345#2 908510345#3 908510345#4 908510345#5 908510345#7 908510345#8 908510345#9 908510345#10 -82443595#10 -82443595#9 -82443595#8"/>
    </vehicle>
    <vehicle id="13" depart="9.00">
        <route edges="-161293771#2 -161293771#1 -908510343#3 -908510345#10 -908510345#9 -908510345#8 -908510345#7 27850585#2 27850585#3 27850585#4 27850585#5 27850585#8 27850585#9 -162385502#0 -161293789#4 -161293789#3 -161293789#2"/>
    </vehicle>
    <vehicle id="14" depart="9.69">
        <route edges="388104998#2 161293769#1 -111314460#1 -111314460#0 362407168#9 362407168#10 -388104998#3 -388104998#2 242436518#1 242436518#2"/>
    </vehicle>
    <vehicle id="15" depart="10.38">
        <route edges="362407168#7 362407168#8 362407168#9 362407168#10 301187460#0 301187460#1 301187460#2"/>
    </vehicle>
    <vehicle id="16" depart="11.08">
        <route edges="111314589#2 1051798764 1051798763 155548316#0 155548316#1 155548316#2 155548316#3 241409481#5 25744272#1 25744272#2 25744272#7 25744272#8 25744272#9 25744272#10 25744272#11 25744272#12 908510345#1 908510345#2 908510345#3 908510345#4 908510345#5"/>
    </vehicle>
    <vehicle id="17" depart="11.77">
        <route edges="-908510344#1 908510345#1 908510345#2 908510345#3 908510345#4 908510345#5 908510345#7 908510345#8 908510345#9 908510345#10 908510343#3 -E0 908510343#6 908510343#9 908510343#10 908510343#11 -1057541826#3 -1057541826#2 158632811#0"/>
    </vehicle>
    <vehicle id="18" depart="12.46">
        <route edges="376274881#2 376274881#3 1057541827#0 1057541827#1 1057499911#1 -E2 243997371#0 243997371#1"/>
    </vehicle>
    <vehicle id="19" depart="13.15">
        <route edges="640058998#1 -388104998#3 -388104998#2 -388104998#1 111314469#1 -E3 162385502#0"/>
    </vehicle>
    <vehicle id="20" depart="13.85">
        <route edges="27850585#10 -640065291#0 -111314469#1 82443595#1 82443595#2 -25744272#2 -25744272#1 111314589#0 111314589#1 111314589#2 1051798764 -1051798764 -111314589#2 -111314589#1"/>
    </vehicle>
    <vehicle id="21" depart="14.54">
        <route edges="-362407168#10 -362407168#9 -362407168#8"/>
    </vehicle>
    <vehicle id="22" depart="15.23">
        <route edges="-158632811#0 1057541826#2 1057541826#3 -908510343#11 -908510343#10 -908510343#9 -908510343#6 E0 -908510343#3 -908510345#10 -908510345#9 -908510345#8 -908510345#7 -908510345#5 -908510345#4 -908510345#3 -908510345#2 -908510345#1 -362407168#25 -362407168#24 -362407168#23 -362407168#20 -362407168#19 -362407168#18 -362407168#17 -362407168#16 -362407168#15 -362407168#14"/>
    </vehicle>
    <vehicle id="23" depart="15.92">
        <route edges="-161293789#3 -161293789#2 -161293789#1 25744272#8 25744272#9 27850585#8 27850585#9 27850585#10 -640065291#0 -111314469#1 388104998#1 388104998#2 388104998#3 -362407168#10 -362407168#9 -362407168#8 -362407168#7 -362407168#5 -362407168#4"/>
    </vehicle>
    <vehicle id="24" depart="16.62">
        <route edges="243997371#3 243997371#4 243997371#5 82443595#1 82443595#2 -25744272#2 -25744272#1 -241409481#5 -241409481#4 -241409481#3 908510343#9 908510343#10 908510343#11 -1057541826#3 -1057541826#2 1057541826#2 1057541826#3 -908510343#11 -908510343#10 -908510343#9"/>
    </vehicle>
    <vehicle id="25" depart="17.31">
        <route edges="-908510343#6 E0 -908510343#3 -908510345#10 -908510345#9 -908510345#8 -908510345#7 -908510345#5 -908510345#4 -908510345#3 -908510345#2 -908510345#1 -362407168#25 -362407168#24 -362407168#23 -362407168#20 -362407168#19 -362407168#18 -362407168#17 -27850585#17"/>
    </vehicle>
    <vehicle id="26" depart="18.00">
        <route edges="-362407168#23 -640065291#3 -640065291#2 -640065291#0 -111314469#1 82443595#1 82443595#2 82443595#7 82443595#8 82443595#9 82443595#10 908510343#3"/>
    </vehicle>
    <vehicle id="27" depart="18.69">
        <route edges="243997372#1 243997372#2 -243997372#2 -243997372#1 -243997372#0 111314533#1 -362407168#17 -362407168#16 -362407168#15 -362407168#14 -362407168#13 -362407168#10 -362407168#9 -362407168#8 -362407168#7 25744749#1 25744749#2 243264464#0 243264464#1"/>
    </vehicle>
    <vehicle id="28" depart="19.38">
        <route edges="-25744272#11 -25744272#10 -25744272#9 -25744272#8 -25744272#7 -82443595#2 -82443595#1 388104998#1 388104998#2 388104998#3 301187460#0 301187460#1 301187460#2"/>
    </vehicle>
    <vehicle id="29" depart="20.08">
        <route edges="-25744272#1 -241409481#5 -241409481#4 -241409481#3 -908510343#6 E0 -908510343#3 -908510345#10 -908510345#9 -908510345#8 -908510345#7 -908510345#5 -908510345#4 -908510345#3"/>
    </vehicle>
    <vehicle id="30" depart="20.77">
        <route edges="E0 161293771#1 161293784#0 908510343#6 241409481#3 241409481#4 241409481#5 25744272#1"/>
    </vehicle>
    <vehicle id="31" depart="21.46">
        <route edges="155548316#1 155548316#2 155548316#3 241409481#5 25744272#1 25744272#2 -82443595#2 -82443595#1 388104998#1 388104998#2 161293769#1 111314460#2 25744749#2 25744749#3 25744749#4"/>
    </vehicle>
    <vehicle id="32" depart="22.15">
        <route edges="388104998#1 242436518#1 242436518#2 243997371#5 111314469#1 640065291#0 640065291#2 640065291#3 362407168#23"/>
    </vehicle>
    <vehicle id="33" depart="22.85">
        <route edges="-362407168#10 -362407168#9 -362407168#8 -362407168#7 25744749#1 25744749#2 25744749#3 25744749#4 25744749#5 25744749#6 243997371#4 243997371#5 111314469#1 -E3 162385502#0 27850585#10 -640065291#0 -111314469#1"/>
    </vehicle>
    <vehicle id="34" depart="23.54">
        <route edges="-430348648#2 -111314589#3 -111314589#2 -111314589#1 -111314589#0 25744272#1 25744272#2 25744272#7 25744272#8 25744272#9 25744272#10 25744272#11 25744272#12 -362407168#25 -362407168#24"/>
    </vehicle>
    <vehicle id="35" depart="24.23">
        <route edges="-27850585#17 -27850585#16 -27850585#15 -27850585#14 -27850585#13 -27850585#10 -27850585#9 -27850585#8 -27850585#5 -27850585#4 -27850585#3 -27850585#2 908510345#7 908510345#8 908510345#9 908510345#10 908510343#3 -E0 908510343#6"/>
    </vehicle>
    <vehicle id="36" depart="24.92">
        <route edges="640067064#0 242323121#1 -908510345#7 -908510345#5 -908510345#4 -908510345#3 -908510345#2 -908510345#1 -362407168#25 -362407168#24 -362407168#23 -640065291#3 -640065291#2"/>
    </vehicle>
    <vehicle id="37" depart="25.62">
        <route edges="25744272#10 25744272#11 25744272#12 908510345#1 908510345#2 908510345#3 908510345#4 908510345#5 908510345#7 908510345#8 908510345#9 908510345#10 908510343#3 -E0 -161293784#0 -161293771#1 -908510343#3 -908510345#10 -908510345#9"/>
    </vehicle>
    <vehicle id="38" depart="26.31">
        <route edges="82443595#9 82443595#10 908510343#3 -E0 908510343#6 908510343#9 908510343#10 908510343#11 -1057541826#3 -1057541826#2 -1057541826#1 1057541825#1"/>
    </vehicle>
    <vehicle id="39" depart="27.00">
        <route edges="-362407168#23 -362407168#20 -362407168#19 -362407168#18"/>
    </vehicle>
    <vehicle id="40" depart="27.69">
        <route edges="155548316#3 241409481#5 25744272#1 25744272#2 25744272#7 25744272#8 25744272#9 25744272#10 25744272#11 25744272#12 -362407168#25 -362407168#24 -362407168#23"/>
    </vehicle>
    <vehicle id="41" depart="28.38">
        <route edges="161293789#1 161293789#2 161293789#3 161293789#4 E3 -111314469#1 82443595#1 82443595#2 82443595#7 82443595#8 82443595#9 82443595#10"/>
    </vehicle>
    <vehicle id="42" depart="29.08">
        <route edges="-908510345#5 -908510345#4 -908510345#3 -908510345#2 -908510345#1 -362407168#25 -362407168#24 -362407168#23 -640065291#3 -640065291#2 -27850585#10 -27850585#9"/>
    </vehicle>
    <vehicle id="43" depart="29.77">
        <route edges="E3 -111314469#1 82443595#1 82443595#2 -25744272#2 -25744272#1 111314589#0"/>
    </vehicle>
    <vehicle id="44" depart="30.46">
        <route edges="-161293771#1 -E0 908510343#6 908510343#9 908510343#10 908510343#11 -1057541826#3 -1057541826#2 -1057541826#1 1057541827#0 1057541827#1 -111314589#3 -111314589#2 -111314589#1"/>
    </vehicle>
    <vehicle id="45" depart="31.15">
        <route edges="-241409481#3 -908510343#6 -161293784#0 161293771#2 -161293759#2 -161293759#1 25744272#2 -82443595#2 -82443595#1 388104998#1 242436518#1 242436518#2 243997371#5"/>
    </vehicle>
    <vehicle id="46" depart="31.85">
        <route edges="362407168#25 -25744272#12 -25744272#11 -25744272#10 -25744272#9 -25744272#8 -25744272#7 -82443595#2 -82443595#1 388104998#1 388104998#2 388104998#3 -362407168#10 -362407168#9 -362407168#8 -362407168#7 -362407168#5 -362407168#4 -362407168#3 -362407168#2 90810948#3 1057498218#1 1057498218#2"/>
    </vehicle>
    <vehicle id="47" depart="32.54">
        <route edges="-150152951#0 -129230032#3 -129230032#2 -129230032#1 -908510345#4"/>
    </vehicle>
    <vehicle id="48" depart="33.23">
        <route edges="E2 1057498219#1 1057498219#2 362407168#2 362407168#3 362407168#4 362407168#5 362407168#7 362407168#8 362407168#9 362407168#10 362407168#13 362407168#14 362407168#15 362407168#16 362407168#17 362407168#18 362407168#19 362407168#20 362407168#23 362407168#24 362407168#25 908510345#1 908510345#2 908510345#3 908510345#4 129230032#1"/>
    </vehicle>
    <vehicle id="49" depart="33.92">
        <route edges="908510345#4 908510345#5 27850585#2 27850585#3 27850585#4 27850585#5 27850585#8 27850585#9 27850585#10 640065291#2"/>
    </vehicle>
    <vehicle id="50" depart="34.62">
        <route edges="-1057541826#2 1057541826#2 1057541826#3 -908510343#11 -908510343#10 -908510343#9 241409481#3 241409481#4 241409481#5 25744272#1 25744272#2 -82443595#2 -82443595#1 388104998#1 388104998#2 388104998#3 301187460#0"/>
    </vehicle>
    <vehicle id="51" depart="35.31">
        <route edges="25744272#7 25744272#8 -242311920 -1007939125#2 -1007939125#1 -82443595#9 -82443595#8 -82443595#7 -25744272#2 -25744272#1 111314589#0 111314589#1 111314589#2 1051798764 1051798763 155548316#0"/>
    </vehicle>
    <vehicle id="52" depart="36.00">
        <route edges="-362407168#23 -640065291#3 -640065291#2 -27850585#10 -27850585#9 -27850585#8 25744272#10"/>
    </vehicle>
    <vehicle id="53" depart="36.69">
        <route edges="-241409481#3 908510343#9 908510343#10 908510343#11 -1057541826#3 -1057541826#2 -1057541826#1 1057541827#0 1057541827#1 1057499911#1 1057498219#1 1057498219#2"/>
    </vehicle>
    <vehicle id="54" depart="37.38">
        <route edges="1057498219#2 362407168#2 362407168#3 362407168#4 362407168#5 362407168#7 362407168#8 362407168#9 362407168#10 362407168#13 362407168#14 362407168#15 362407168#16 362407168#17 362407168#18 362407168#19 362407168#20 362407168#23 362407168#24 362407168#25 908510345#1"/>
    </vehicle>
    <vehicle id="55" depart="38.08">
        <route edges="640065291#3 362407168#23 362407168#24 362407168#25 908510344#1 -908510344#1 -362407168#25 -362407168#24 -362407168#23"/>
    </vehicle>
    <vehicle id="56" depart="38.77">
        <route edges="1057541827#1 -111314589#3 -111314589#2 -111314589#1 -111314589#0 25744272#1 25744272#2 82443595#7 82443595#8 82443595#9 1007939125#1 1007939125#2 242311920 -25744272#8 -25744272#7"/>
    </vehicle>
    <vehicle id="57" depart="39.46">
        <route edges="82443595#8 82443595#9 82443595#10 908510343#3 -E0 908510343#6 908510343#9 908510343#10 908510343#11 -1057541826#3 -1057541826#2 -1057541826#1 81528712#1"/>
    </vehicle>
    <vehicle id="59" depart="40.85">
        <route edges="241409481#5 25744272#1 25744272#2 -82443595#2 -82443595#1 -243997371#5"/>
    </vehicle>
    <vehicle id="60" depart="41.54">
        <route edges="362407168#16 -27850585#17 -27850585#16 -27850585#15 -27850585#14 -27850585#13 -27850585#10 -27850585#9 -27850585#8 -25744272#9 -25744272#8 -25744272#7 -25744272#2 -25744272#1 111314589#0 111314589#1 111314589#2 1051798764 1051798763 155548316#0 155548316#1"/>
    </vehicle>
    <vehicle id="61" depart="42.23">
        <route edges="362407168#20 362407168#23 362407168#24 362407168#25 908510345#1 908510345#2 908510345#3 908510345#4 129230032#1 129230032#2"/>
    </vehicle>
    <vehicle id="62" depart="42.92">
        <route edges="-1007939125#1 -82443595#9 -82443595#8 -82443595#7 -82443595#2 -82443595#1"/>
    </vehicle>
    <vehicle id="63" depart="43.62">
        <route edges="-109382900#0 1051798763 155548316#0 155548316#1 155548316#2 155548316#3 -241409481#4 -241409481#3 908510343#9 908510343#10"/>
    </vehicle>
    <vehicle id="64" depart="44.31">
        <route edges="81528716 81528746#1 -908510343#11 -908510343#10 -908510343#9 241409481#3 241409481#4 241409481#5 25744272#1 25744272#2 -82443595#2 -82443595#1 388104998#1 388104998#2"/>
    </vehicle>
    <vehicle id="65" depart="45.00">
        <route edges="-388104998#3 -388104998#2 -388104998#1 82443595#1 82443595#2 -25744272#2 -25744272#1 111314589#0 111314589#1 111314589#2 111314589#3 430348648#2 -430348648#2 -111314589#3"/>
    </vehicle>
    <vehicle id="66" depart="45.69">
        <route edges="81528716 81528746#1 -908510343#11 -908510343#10 -908510343#9 -908510343#6 -161293784#0 -161293771#1 -E0 908510343#6 908510343#9"/>
    </vehicle>
    <vehicle id="67" depart="46.38">
        <route edges="-158632812#2 -158632812#1 1057498219#2 362407168#2 158493282#0 158493282#1 90810948#1 90810948#3 1057498218#1 1057498218#2 -111314589#3 1051798764 109382900#0 109382900#1"/>
    </vehicle>
    <vehicle id="68" depart="47.08">
        <route edges="-155548316#1 -155548316#0 155548316#0 155548316#1 155548316#2 155548316#3 241409481#5 25744272#1 25744272#2 -82443595#2 -82443595#1 388104998#1 388104998#2 388104998#3 362407168#13 362407168#14 362407168#15 362407168#16 362407168#17 362407168#18"/>
    </vehicle>
    <vehicle id="69" depart="47.77">
        <route edges="362407168#17 362407168#18 362407168#19 362407168#20 -640065291#3 -640065291#2 -640065291#0 -111314469#1 -243997371#5 -242436518#2 -242436518#1"/>
    </vehicle>
    <vehicle id="70" depart="48.46">
        <route edges="1057540305#0 1057498219#1 1057498219#2 362407168#2 158493282#0 158493282#1"/>
    </vehicle>
    <vehicle id="71" depart="49.15">
        <route edges="-362407168#23 -640065291#3 -640065291#2 -27850585#10 -27850585#9 -27850585#8 -25744272#9 -25744272#8 -25744272#7 -25744272#2 -25744272#1 111314589#0 111314589#1 111314589#2 111314589#3 1057499912#1 1057499912#2 81528712#1"/>
    </vehicle>
    <vehicle id="72" depart="49.85">
        <route edges="-E2 243997371#0 243997371#1 243997371#3 243997371#4 243997371#5 111314469#1 640065291#0 -27850585#10 -27850585#9 -27850585#8 -27850585#5 -27850585#4 -27850585#3"/>
    </vehicle>
    <vehicle id="73" depart="50.54">
        <route edges="111314589#2 111314589#3 1057499911#1 1057498219#1 1057498219#2 362407168#2 362407168#3 362407168#4 362407168#5 362407168#7 362407168#8 362407168#9 362407168#10 301187460#0 301187460#1 301187460#2"/>
    </vehicle>
    <vehicle id="74" depart="51.23">
        <route edges="-25744749#6 -25744749#5 -25744749#4 -25744749#3 -25744749#2 -25744749#1 362407168#7 362407168#8 362407168#9 362407168#10 362407168#13 362407168#14 362407168#15 362407168#16 -27850585#17 -27850585#16 -27850585#15 -27850585#14 -27850585#13 -640065291#0"/>
    </vehicle>
    <vehicle id="75" depart="51.92">
        <route edges="E2 1057498219#1 1057498219#2 362407168#2 362407168#3 362407168#4 362407168#5 362407168#7 362407168#8 362407168#9 362407168#10 -388104998#3 -388104998#2 -388104998#1 82443595#1 82443595#2 25744272#7 25744272#8 25744272#9 25744272#10 25744272#11"/>
    </vehicle>
    <vehicle id="76" depart="52.62">
        <route edges="1057498218#1 1057498218#2 -111314589#3 1051798764 1051798763 155548316#0 155548316#1 155548316#2 155548316#3 241409481#5 111314589#0 111314589#1 111314589#2"/>
    </vehicle>
    <vehicle id="77" depart="53.31">
        <route edges="-242311919#0 908510345#9 908510345#10 -82443595#10 -82443595#9 -82443595#8 -82443595#7 -82443595#2 -82443595#1 388104998#1 388104998#2 388104998#3 -362407168#10"/>
    </vehicle>
    <vehicle id="78" depart="54.00">
        <route edges="-82443595#10 -82443595#9 -82443595#8 -82443595#7 -25744272#2 161293759#1 161293759#2 -161293771#2 161293784#0 908510343#6 241409481#3 241409481#4"/>
    </vehicle>
    <vehicle id="79" depart="54.69">
        <route edges="-362407168#10 -362407168#9 -362407168#8 -362407168#7 25744749#1 25744749#2 25744749#3 25744749#4 25744749#5 25744749#6 243997371#4 243997371#5 111314469#1 640065291#0 -27850585#10 -27850585#9"/>
    </vehicle>
    <vehicle id="80" depart="55.38">
        <route edges="-155548316#2 -155548316#1 -155548316#0 155548316#0 155548316#1 155548316#2 155548316#3 241409481#5 25744272#1 25744272#2 25744272#7 25744272#8 25744272#9 25744272#10 25744272#11 25744272#12 -362407168#25 -362407168#24 -362407168#23 -362407168#20 -362407168#19 -362407168#18 -111314533#1 243997372#0"/>
    </vehicle>
    <vehicle id="81" depart="56.08">
        <route edges="-362407168#10 -362407168#9 -362407168#8 -362407168#7 25744749#1 25744749#2 25744749#3 25744749#4 25744749#5 25744749#6 243997371#4 243997371#5 82443595#1 82443595#2 82443595#7"/>
    </vehicle>
    <vehicle id="82" depart="56.77">
        <route edges="640058998#1 -388104998#3 -388104998#2 -388104998#1 82443595#1 82443595#2 -25744272#2 -25744272#1 -241409481#5 -155548316#3 -155548316#2 -155548316#1"/>
    </vehicle>
    <vehicle id="83" depart="57.46">
        <route edges="-362407168#14 -362407168#13 -388104998#3 -388104998#2 -388104998#1 82443595#1 82443595#2 25744272#7 25744272#8"/>
    </vehicle>
    <vehicle id="84" depart="58.15">
        <route edges="-27850585#2 908510345#7 908510345#8 908510345#9 908510345#10 908510343#3 -E0 908510343#6 908510343#9 908510343#10 908510343#11 -1057541826#3 -1057541826#2 -1057541826#1 1057541827#0 1057541827#1 1057499911#1 -E2 243997371#0 243997371#1 28116000#0 28116000#1 -243264464#2 -243264464#1 -243264464#0"/>
    </vehicle>
    <vehicle id="85" depart="58.85">
        <route edges="90810948#3 -E2 243997371#0 243997371#1 243997371#3 243997371#4 243997371#5 82443595#1 82443595#2 25744272#7 161293789#1"/>
    </vehicle>
    <vehicle id="86" depart="59.54">
        <route edges="1057499912#2 1057541826#1 1057541826#2 1057541826#3 -908510343#11 -908510343#10 -908510343#9 241409481#3 241409481#4 241409481#5 25744272#1 25744272#2 25744272#7 25744272#8 25744272#9 27850585#8 27850585#9 27850585#10 640065291#2 640065291#3 362407168#23 362407168#24 362407168#25"/>
    </vehicle>
    <vehicle id="87" depart="60.23">
        <route edges="362407168#7 362407168#8 362407168#9 362407168#10 -388104998#3 -388104998#2 -388104998#1 -243997371#5 -243997371#4 -25744749#6 -25744749#5 -25744749#4 -25744749#3 -25744749#2"/>
    </vehicle>
    <vehicle id="88" depart="60.92">
        <route edges="-161293789#1 25744272#8 25744272#9 27850585#8 27850585#9 27850585#10 -640065291#0 -111314469#1 -243997371#5 -243997371#4 -243997371#3 -243997371#1 -243997371#0 E2 1057498219#1"/>
    </vehicle>
    <vehicle id="89" depart="61.62">
        <route edges="-E2 243997371#0 243997371#1 243997371#3 243997371#4 243997371#5 82443595#1 82443595#2 -25744272#2 -25744272#1 -241409481#5 -241409481#4 -241409481#3 908510343#9 908510343#10 908510343#11 -1057541826#3 -1057541826#2 1057541826#2"/>
    </vehicle>
    <vehicle id="91" depart="63.00">
        <route edges="908510345#8 242311919#0 242311919#1 -242311919#1 -242311919#0 -908510345#8 -908510345#7 27850585#2 27850585#3 27850585#4 27850585#5 27850585#8 27850585#9 -162385502#0 -161293789#4 -161293789#3 -161293789#2"/>
    </vehicle>
    <vehicle id="92" depart="63.69">
        <route edges="-908510345#5 129230032#1 129230032#2 129230032#3 640067064#0 242323121#1 908510345#8 908510345#9 908510345#10 -82443595#10 -82443595#9 -82443595#8"/>
    </vehicle>
    <vehicle id="93" depart="64.38">
        <route edges="640058998#1 -388104998#3 -388104998#2 -388104998#1 111314469#1 640065291#0 640065291#2 640065291#3 -362407168#20 -362407168#19 -362407168#18"/>
    </vehicle>
    <vehicle id="94" depart="65.08">
        <route edges="-25744272#9 -25744272#8 -25744272#7 -25744272#2 -25744272#1 111314589#0 111314589#1 111314589#2 111314589#3 1057499912#1"/>
    </vehicle>
    <vehicle id="95" depart="65.77">
        <route edges="-E2 243997371#0 243997371#1 243997371#3 -25744749#6 -25744749#5 -25744749#4 -25744749#3 -25744749#2 -25744749#1 -362407168#5 -362407168#4"/>
    </vehicle>
    <vehicle id="96" depart="66.46">
        <route edges="-362407168#18 -362407168#17 -362407168#16 -362407168#15 -362407168#14 -362407168#13 -362407168#10 -362407168#9 -362407168#8 -362407168#7 -362407168#5 -362407168#4 -362407168#3 158493282#0 158493282#1 90810948#1"/>
    </vehicle>
    <vehicle id="97" depart="67.15">
        <route edges="1057498218#2 -111314589#3 -111314589#2 -111314589#1 -111314589#0 25744272#1 25744272#2 25744272#7 25744272#8 25744272#9 27850585#8 27850585#9 27850585#10 640065291#2 640065291#3"/>
    </vehicle>
    <vehicle id="98" depart="67.85">
        <route edges="129230032#2 129230032#3 640067064#0 242323121#1 908510345#8 908510345#9 908510345#10 908510343#3 -E0 908510343#6 908510343#9 908510343#10 908510343#11 -1057541826#3 -1057541826#2 -1057541826#1 1057541827#0 1057541827#1 -111314589#3 -111314589#2"/>
    </vehicle>
    <vehicle id="99" depart="68.54">
        <route edges="E4 243997371#5 82443595#1 82443595#2 -25744272#2 -25744272#1 111314589#0 111314589#1 111314589#2 111314589#3 430348648#2"/>
    </vehicle>
    <vehicle id="100" depart="69.23">
        <route edges="908510345#3 908510345#4 908510345#5 27850585#2 27850585#3 27850585#4 27850585#5 -25744272#9 -25744272#8 -25744272#7 -82443595#2 -82443595#1 388104998#1 388104998#2 388104998#3 -362407168#10 -362407168#9 -362407168#8 -362407168#7 -362407168#5 -362407168#4 -362407168#3 -362407168#2 90810948#3"/>
    </vehicle>
    <vehicle id="101" depart="69.92">
        <route edges="388104998#3 362407168#13 362407168#14 362407168#15 362407168#16 362407168#17 362407168#18 362407168#19 362407168#20 362407168#23 362407168#24 362407168#25 -25744272#12 -25744272#11"/>
    </vehicle>
    <vehicle id="102" depart="70.62">
        <route edges="1057541826#2 1057541826#3 -908510343#11 -908510343#10 -908510343#9 241409481#3 241409481#4 241409481#5 25744272#1 25744272#2 25744272#7 25744272#8 25744272#9 -27850585#5 -27850585#4"/>
    </vehicle>
    <vehicle id="103" depart="71.31">
        <route edges="-908510345#5 129230032#1 129230032#2 129230032#3 640067064#0 242323121#1 908510345#8 908510345#9 908510345#10 908510343#3 -E0 908510343#6 908510343#9 908510343#10 908510343#11 -1057541826#3 -1057541826#2 -1057541826#1 1057541827#0 1057541827#1 -111314589#3"/>
    </vehicle>
    <vehicle id="104" depart="72.00">
        <route edges="-908510344#1 908510345#1 908510345#2 908510345#3 908510345#4 908510345#5 908510345#7 908510345#8 908510345#9"/>
    </vehicle>
    <vehicle id="105" depart="72.69">
        <route edges="-362407168#23 640065291#6 -640065291#6 362407168#23 362407168#24 362407168#25"/>
    </vehicle>
    <vehicle id="106" depart="73.38">
        <route edges="1057498219#2 362407168#2 158493282#0 158493282#1 90810948#1 90810948#3 1057498218#1 1057498218#2"/>
    </vehicle>
    <vehicle id="107" depart="74.08">
        <route edges="908510345#1 908510345#2 908510345#3 908510345#4 908510345#5 27850585#2 27850585#3 27850585#4 27850585#5 27850585#8 27850585#9 27850585#10 -640065291#0 -111314469#1 -243997371#5 -243997371#4 -243997371#3 -243997371#1 -243997371#0 E2"/>
    </vehicle>
    <vehicle id="108" depart="74.77">
        <route edges="155548316#0 155548316#1 155548316#2 155548316#3 241409481#5 25744272#1 25744272#2 -82443595#2 -82443595#1 388104998#1 388104998#2 388104998#3 301187460#0"/>
    </vehicle>
    <vehicle id="110" depart="76.15">
        <route edges="908510345#3 908510345#4 908510345#5 27850585#2 27850585#3 27850585#4 168901349#1"/>
    </vehicle>
    <vehicle id="111" depart="76.85">
        <route edges="111314589#3 1057499911#1 1057498219#1 1057498219#2 362407168#2 362407168#3 362407168#4 362407168#5 362407168#7 362407168#8 362407168#9 362407168#10 362407168#13 362407168#14"/>
    </vehicle>
    <vehicle id="112" depart="77.54">
        <route edges="-111314589#3 1051798764 -1051798764 111314589#3 1057499912#1 1057499912#2 1057541826#1 1057541826#2 1057541826#3 -908510343#11 -908510343#10 -908510343#9 241409481#3"/>
    </vehicle>
    <vehicle id="114" depart="78.92">
        <route edges="-243997372#1 -243997372#0 111314533#1 362407168#18 362407168#19 362407168#20 362407168#23 362407168#24 362407168#25 908510345#1 908510345#2"/>
    </vehicle>
    <vehicle id="115" depart="79.62">
        <route edges="-158632811#0 1057541826#2 1057541826#3 -908510343#11 -908510343#10 -908510343#9 -908510343#6 E0 -908510343#3 -908510345#10 -908510345#9 -908510345#8 -908510345#7 27850585#2 27850585#3 27850585#4 27850585#5 -25744272#9"/>
    </vehicle>
    <vehicle id="116" depart="80.31">
        <route edges="168901349#1 168901349#2 -168901349#2 -168901349#1 27850585#5 27850585#8 27850585#9 -162385502#0 -161293789#4 -161293789#3 -161293789#2 -161293789#1 25744272#8 25744272#9"/>
    </vehicle>
    <vehicle id="117" depart="81.00">
        <route edges="-362407168#14 -362407168#13 -388104998#3 -388104998#2 -388104998#1 82443595#1 82443595#2 -25744272#2 -25744272#1 -241409481#5"/>
    </vehicle>
    <vehicle id="118" depart="81.69">
        <route edges="81528745#1 -908510345#10 -908510345#9 -908510345#8 -908510345#7 -908510345#5 -908510345#4 -908510345#3 -908510345#2 -908510345#1 -362407168#25 -362407168#24 -362407168#23 -362407168#20 -362407168#19 -362407168#18 -362407168#17"/>
    </vehicle>
    <vehicle id="119" depart="82.38">
        <route edges="168901349#1 168901349#2 -168901349#2 -168901349#1 27850585#5 -25744272#9 -25744272#8 -25744272#7 -25744272#2 -25744272#1 111314589#0 111314589#1 111314589#2 111314589#3 1057499911#1 -E2 243997371#0 243997371#1 243997371#3"/>
    </vehicle>
    <vehicle id="120" depart="83.08">
        <route edges="-E0 908510343#6 241409481#3"/>
    </vehicle>