<?xml version="1.0" encoding="UTF-8"?>

<!-- generated on 2022-08-01 18:43:58 by Eclipse SUMO netedit Version 1.14.1
<configuration xmlns:xsi="http://www.w3.org/2001/XMLSchema-instance" xsi:noNamespaceSchemaLocation="http://sumo.dlr.de/xsd/netconvertConfiguration.xsd">

    <input>
        <sumo-net-file value="/home/orgil/Documents/bagatoiruu-rl/maps/cleared.net.xml"/>
    </input>

    <output>
        <output-file value="/home/orgil/Documents/bagatoiruu-rl/maps/cleared.net.xml"/>
        <output.street-names value="true"/>
    </output>

    <processing>
        <geometry.min-radius.fix.railways value="false"/>
        <geometry.max-grade.fix value="false"/>
        <offset.disable-normalization value="true"/>
        <lefthand value="false"/>
    </processing>

    <junctions>
        <no-turnarounds value="true"/>
        <junctions.corner-detail value="5"/>
        <junctions.limit-turn-speed value="5.5"/>
        <rectangular-lane-cut value="false"/>
    </junctions>

    <pedestrian>
        <walkingareas value="false"/>
    </pedestrian>

</configuration>
-->

<net version="1.9" junctionCornerDetail="5" limitTurnSpeed="5.50" xmlns:xsi="http://www.w3.org/2001/XMLSchema-instance" xsi:noNamespaceSchemaLocation="http://sumo.dlr.de/xsd/net_file.xsd">

    <location netOffset="-641968.70,-5308119.71" convBoundary="0.00,448.02,2224.26,2124.05" origBoundary="106.900332,47.910440,106.930167,47.929436" projParameter="+proj=utm +zone=48 +ellps=WGS84 +datum=WGS84 +units=m +no_defs"/>

    <type id="highway.bridleway" priority="1" numLanes="1" speed="2.78" allow="pedestrian" oneway="1" width="2.00"/>
    <type id="highway.bus_guideway" priority="1" numLanes="1" speed="27.78" allow="bus" oneway="1"/>
    <type id="highway.cycleway" priority="1" numLanes="1" speed="5.56" allow="bicycle" oneway="0" width="1.00"/>
    <type id="highway.footway" priority="1" numLanes="1" speed="2.78" allow="pedestrian" oneway="1" width="2.00"/>
    <type id="highway.ford" priority="1" numLanes="1" speed="2.78" allow="army" oneway="0"/>
    <type id="highway.living_street" priority="2" numLanes="1" speed="2.78" disallow="tram rail_urban rail rail_electric rail_fast ship" oneway="0"/>
    <type id="highway.motorway" priority="14" numLanes="2" speed="39.44" allow="private emergency authority army vip passenger hov taxi bus coach delivery truck trailer motorcycle evehicle custom1 custom2" oneway="1"/>
    <type id="highway.motorway_link" priority="9" numLanes="1" speed="22.22" allow="private emergency authority army vip passenger hov taxi bus coach delivery truck trailer motorcycle evehicle custom1 custom2" oneway="1"/>
    <type id="highway.path" priority="1" numLanes="1" speed="5.56" allow="pedestrian bicycle" oneway="0" width="2.00"/>
    <type id="highway.pedestrian" priority="1" numLanes="1" speed="2.78" allow="pedestrian" oneway="1" width="2.00"/>
    <type id="highway.primary" priority="12" numLanes="2" speed="27.78" disallow="tram rail_urban rail rail_electric rail_fast ship" oneway="0"/>
    <type id="highway.primary_link" priority="7" numLanes="1" speed="22.22" disallow="tram rail_urban rail rail_electric rail_fast ship" oneway="0"/>
    <type id="highway.raceway" priority="15" numLanes="2" speed="83.33" allow="vip" oneway="0"/>
    <type id="highway.residential" priority="3" numLanes="1" speed="13.89" disallow="tram rail_urban rail rail_electric rail_fast ship" oneway="0"/>
    <type id="highway.secondary" priority="11" numLanes="1" speed="27.78" disallow="tram rail_urban rail rail_electric rail_fast ship" oneway="0"/>
    <type id="highway.secondary_link" priority="6" numLanes="1" speed="22.22" disallow="tram rail_urban rail rail_electric rail_fast ship" oneway="0"/>
    <type id="highway.service" priority="1" numLanes="1" speed="5.56" allow="pedestrian delivery bicycle" oneway="0"/>
    <type id="highway.stairs" priority="1" numLanes="1" speed="1.39" allow="pedestrian" oneway="1" width="2.00"/>
    <type id="highway.step" priority="1" numLanes="1" speed="1.39" allow="pedestrian" oneway="1" width="2.00"/>
    <type id="highway.steps" priority="1" numLanes="1" speed="1.39" allow="pedestrian" oneway="1" width="2.00"/>
    <type id="highway.tertiary" priority="10" numLanes="1" speed="22.22" disallow="tram rail_urban rail rail_electric rail_fast ship" oneway="0"/>
    <type id="highway.tertiary_link" priority="5" numLanes="1" speed="22.22" disallow="tram rail_urban rail rail_electric rail_fast ship" oneway="0"/>
    <type id="highway.track" priority="1" numLanes="1" speed="5.56" allow="pedestrian motorcycle moped bicycle" oneway="0"/>
    <type id="highway.trunk" priority="13" numLanes="2" speed="27.78" disallow="pedestrian bicycle tram rail_urban rail rail_electric rail_fast ship" oneway="0"/>
    <type id="highway.trunk_link" priority="8" numLanes="1" speed="22.22" disallow="pedestrian bicycle tram rail_urban rail rail_electric rail_fast ship" oneway="0"/>
    <type id="highway.unclassified" priority="4" numLanes="1" speed="13.89" disallow="tram rail_urban rail rail_electric rail_fast ship" oneway="0"/>
    <type id="highway.unsurfaced" priority="1" numLanes="1" speed="8.33" disallow="tram rail_urban rail rail_electric rail_fast ship" oneway="0"/>
    <type id="railway.highspeed" priority="21" numLanes="1" speed="69.44" allow="rail_fast" oneway="1"/>
    <type id="railway.light_rail" priority="19" numLanes="1" speed="27.78" allow="rail_urban" oneway="1"/>
    <type id="railway.preserved" priority="16" numLanes="1" speed="27.78" allow="rail" oneway="1"/>
    <type id="railway.rail" priority="20" numLanes="1" speed="44.44" allow="rail" oneway="1"/>
    <type id="railway.subway" priority="18" numLanes="1" speed="27.78" allow="rail_urban" oneway="1"/>
    <type id="railway.tram" priority="17" numLanes="1" speed="13.89" allow="tram" oneway="1"/>

    <edge id=":1054352912_0" function="internal">
        <lane id=":1054352912_0_0" index="0" disallow="pedestrian bicycle tram rail_urban rail rail_electric rail_fast ship" speed="10.63" length="18.41" shape="1478.85,774.15 1473.58,773.45 1469.06,774.03 1465.30,775.88 1462.29,779.01"/>
    </edge>
    <edge id=":1054352912_1" function="internal">
        <lane id=":1054352912_1_0" index="0" disallow="pedestrian bicycle tram rail_urban rail rail_electric rail_fast ship" speed="16.67" length="27.48" shape="1478.85,774.15 1470.82,772.23 1465.35,770.79 1459.95,769.12 1452.12,766.53"/>
        <lane id=":1054352912_1_1" index="1" disallow="pedestrian bicycle tram rail_urban rail rail_electric rail_fast ship" speed="16.67" length="27.48" shape="1479.54,771.03 1471.61,769.12 1466.21,767.70 1460.87,766.06 1453.13,763.49"/>
        <lane id=":1054352912_1_2" index="2" disallow="pedestrian bicycle tram rail_urban rail rail_electric rail_fast ship" speed="16.67" length="27.48" shape="1480.23,767.91 1472.40,766.02 1467.06,764.61 1461.79,762.99 1454.14,760.46"/>
    </edge>
    <edge id=":1054352912_4" function="internal">
        <lane id=":1054352912_4_0" index="0" disallow="pedestrian bicycle tram rail_urban rail rail_electric rail_fast ship" speed="9.57" length="6.38" shape="1480.23,767.91 1474.35,765.43"/>
    </edge>
    <edge id=":1054352912_18" function="internal">
        <lane id=":1054352912_18_0" index="0" disallow="pedestrian bicycle tram rail_urban rail rail_electric rail_fast ship" speed="9.57" length="18.63" shape="1474.35,765.43 1474.13,765.34 1471.02,761.26 1470.88,755.67 1473.72,748.55"/>
    </edge>
    <edge id=":1054352912_5" function="internal">
        <lane id=":1054352912_5_0" index="0" disallow="pedestrian bicycle tram rail_urban rail rail_electric rail_fast ship" speed="5.98" length="9.08" shape="1479.33,751.64 1478.41,754.07 1478.61,756.00 1479.92,757.42 1482.36,758.34"/>
    </edge>
    <edge id=":1054352912_6" function="internal">
        <lane id=":1054352912_6_0" index="0" disallow="tram rail_urban rail rail_electric rail_fast ship" speed="15.28" length="32.08" shape="1479.33,751.64 1475.44,758.46 1471.15,765.54 1466.69,772.51 1462.29,779.01"/>
        <lane id=":1054352912_6_1" index="1" disallow="tram rail_urban rail rail_electric rail_fast ship" speed="15.28" length="32.08" shape="1476.52,750.09 1472.66,756.87 1468.44,763.85 1464.04,770.72 1459.67,777.18"/>
    </edge>
    <edge id=":1054352912_8" function="internal">
        <lane id=":1054352912_8_0" index="0" disallow="pedestrian bicycle tram rail_urban rail rail_electric rail_fast ship" speed="11.69" length="6.82" shape="1476.52,750.09 1472.55,755.64"/>
    </edge>
    <edge id=":1054352912_19" function="internal">
        <lane id=":1054352912_19_0" index="0" disallow="pedestrian bicycle tram rail_urban rail rail_electric rail_fast ship" speed="11.69" length="20.29" shape="1472.55,755.64 1472.02,756.39 1466.78,760.22 1460.83,761.57 1454.14,760.46"/>
    </edge>
    <edge id=":1054352912_9" function="internal">
        <lane id=":1054352912_9_0" index="0" disallow="pedestrian bicycle tram rail_urban rail rail_electric rail_fast ship" speed="9.19" length="16.02" shape="1457.05,751.72 1461.54,752.52 1465.35,752.01 1468.47,750.17 1470.91,747.01"/>
    </edge>
    <edge id=":1054352912_10" function="internal">
        <lane id=":1054352912_10_0" index="0" disallow="pedestrian bicycle tram rail_urban rail rail_electric rail_fast ship" speed="16.67" length="26.49" shape="1457.05,751.72 1482.36,758.34"/>
        <lane id=":1054352912_10_1" index="1" disallow="pedestrian bicycle tram rail_urban rail rail_electric rail_fast ship" speed="16.67" length="26.49" shape="1456.04,754.76 1481.66,761.47"/>
        <lane id=":1054352912_10_2" index="2" disallow="pedestrian bicycle tram rail_urban rail rail_electric rail_fast ship" speed="16.67" length="26.49" shape="1455.03,757.80 1480.97,764.59"/>
    </edge>
    <edge id=":1054352912_13" function="internal">
        <lane id=":1054352912_13_0" index="0" disallow="pedestrian bicycle tram rail_urban rail rail_electric rail_fast ship" speed="9.40" length="2.29" shape="1455.03,757.80 1457.08,758.81"/>
    </edge>
    <edge id=":1054352912_20" function="internal">
        <lane id=":1054352912_20_0" index="0" disallow="pedestrian bicycle tram rail_urban rail rail_electric rail_fast ship" speed="9.40" length="22.50" shape="1457.08,758.81 1460.95,760.71 1463.70,764.91 1463.27,770.40 1459.67,777.18"/>
    </edge>
    <edge id=":1054352912_14" function="internal">
        <lane id=":1054352912_14_0" index="0" disallow="tram rail_urban rail rail_electric rail_fast ship" speed="15.28" length="31.22" shape="1454.42,773.51 1458.74,767.14 1463.01,760.47 1467.11,753.69 1470.91,747.01"/>
    </edge>
    <edge id=":1054352912_15" function="internal">
        <lane id=":1054352912_15_0" index="0" disallow="pedestrian bicycle tram rail_urban rail rail_electric rail_fast ship" speed="13.96" length="15.49" shape="1454.42,773.51 1460.23,766.88 1465.83,763.24"/>
    </edge>
    <edge id=":1054352912_16" function="internal">
        <lane id=":1054352912_16_0" index="0" disallow="tram rail_urban rail rail_electric rail_fast ship" speed="15.28" length="31.57" shape="1457.04,775.34 1461.39,768.93 1465.72,762.16 1469.89,755.28 1473.72,748.55"/>
    </edge>
    <edge id=":1054352912_17" function="internal">
        <lane id=":1054352912_17_0" index="0" disallow="pedestrian bicycle tram rail_urban rail rail_electric rail_fast ship" speed="13.12" length="5.77" shape="1457.04,775.34 1460.84,770.99"/>
    </edge>
    <edge id=":1054352912_21" function="internal">
        <lane id=":1054352912_21_0" index="0" disallow="pedestrian bicycle tram rail_urban rail rail_electric rail_fast ship" speed="13.96" length="16.25" shape="1465.83,763.24 1466.71,762.67 1473.85,760.86 1481.66,761.47"/>
    </edge>
    <edge id=":1054352912_22" function="internal">
        <lane id=":1054352912_22_0" index="0" disallow="pedestrian bicycle tram rail_urban rail rail_electric rail_fast ship" speed="13.12" length="22.18" shape="1460.84,770.99 1462.19,769.46 1467.89,765.70 1474.15,764.08 1480.97,764.59"/>
    </edge>
    <edge id=":1054352964_0" function="internal">
        <lane id=":1054352964_0_0" index="0" disallow="pedestrian bicycle tram rail_urban rail rail_electric rail_fast ship" speed="6.86" length="9.53" shape="1780.87,845.21 1778.41,845.17 1776.44,845.99 1774.96,847.66 1773.96,850.18"/>
    </edge>
    <edge id=":1054352964_1" function="internal">
        <lane id=":1054352964_1_0" index="0" disallow="pedestrian bicycle tram rail_urban rail rail_electric rail_fast ship" speed="16.67" length="20.53" shape="1780.87,845.21 1760.58,841.05"/>
        <lane id=":1054352964_1_1" index="1" disallow="pedestrian bicycle tram rail_urban rail rail_electric rail_fast ship" speed="16.67" length="20.53" shape="1781.43,842.06 1761.32,837.93"/>
        <lane id=":1054352964_1_2" index="2" disallow="pedestrian bicycle tram rail_urban rail rail_electric rail_fast ship" speed="16.67" length="20.53" shape="1781.98,838.91 1762.06,834.82"/>
    </edge>
    <edge id=":1054352964_4" function="internal">
        <lane id=":1054352964_4_0" index="0" disallow="pedestrian bicycle tram rail_urban rail rail_electric rail_fast ship" speed="16.67" length="19.97" shape="1764.39,825.04 1770.04,826.63 1773.93,827.64 1777.86,828.46 1783.64,829.51"/>
        <lane id=":1054352964_4_1" index="1" disallow="pedestrian bicycle tram rail_urban rail rail_electric rail_fast ship" speed="16.67" length="19.97" shape="1763.65,828.15 1769.35,829.76 1773.28,830.78 1777.25,831.61 1783.08,832.66"/>
        <lane id=":1054352964_4_2" index="2" disallow="pedestrian bicycle tram rail_urban rail rail_electric rail_fast ship" speed="16.67" length="19.97" shape="1762.91,831.27 1768.67,832.89 1772.63,833.91 1776.64,834.75 1782.53,835.81"/>
    </edge>
    <edge id=":1054352964_7" function="internal">
        <lane id=":1054352964_7_0" index="0" disallow="pedestrian bicycle tram rail_urban rail rail_electric rail_fast ship" speed="10.01" length="4.76" shape="1762.91,831.27 1767.19,833.35"/>
    </edge>
    <edge id=":1054352964_11" function="internal">
        <lane id=":1054352964_11_0" index="0" disallow="pedestrian bicycle tram rail_urban rail rail_electric rail_fast ship" speed="10.01" length="17.60" shape="1767.19,833.35 1767.81,833.65 1770.76,837.46 1771.78,842.71 1770.86,849.38"/>
    </edge>
    <edge id=":1054352964_8" function="internal">
        <lane id=":1054352964_8_0" index="0" disallow="pedestrian bicycle tram rail_urban rail rail_electric rail_fast ship" speed="6.47" length="9.03" shape="1764.66,847.80 1764.93,845.33 1764.34,843.38 1762.89,841.96 1760.58,841.05"/>
    </edge>
    <edge id=":1054352964_9" function="internal">
        <lane id=":1054352964_9_0" index="0" disallow="pedestrian bicycle tram rail_urban rail rail_electric rail_fast ship" speed="11.10" length="26.66" shape="1764.66,847.80 1767.50,840.25 1771.52,835.22 1776.71,832.68 1783.08,832.66"/>
        <lane id=":1054352964_9_1" index="1" disallow="pedestrian bicycle tram rail_urban rail rail_electric rail_fast ship" speed="10.08" length="21.79" shape="1767.76,848.59 1770.10,842.27 1773.34,838.04 1777.48,835.88 1782.53,835.81"/>
    </edge>
    <edge id=":1055337491_0" function="internal">
        <lane id=":1055337491_0_0" index="0" disallow="tram rail_urban rail rail_electric rail_fast ship" speed="3.65" length="4.67" shape="743.63,725.65 742.31,725.05 741.79,724.33 742.06,723.47 743.11,722.49"/>
    </edge>
    <edge id=":1204976036_0" function="internal">
        <lane id=":1204976036_0_0" index="0" disallow="tram rail_urban rail rail_electric rail_fast ship" speed="16.67" length="0.58" shape="1704.64,1350.98 1704.93,1350.99 1705.13,1351.00 1705.32,1351.03 1705.61,1351.07"/>
        <lane id=":1204976036_0_1" index="1" disallow="tram rail_urban rail rail_electric rail_fast ship" speed="16.67" length="0.58" shape="1704.56,1354.18 1704.73,1354.19 1704.85,1354.19 1704.97,1354.21 1705.14,1354.23"/>
        <lane id=":1204976036_0_2" index="2" disallow="tram rail_urban rail rail_electric rail_fast ship" speed="16.67" length="0.58" shape="1704.48,1357.38 1704.53,1357.38 1704.57,1357.39 1704.61,1357.39 1704.67,1357.40"/>
    </edge>
    <edge id=":1204976113_0" function="internal">
        <lane id=":1204976113_0_0" index="0" disallow="tram rail_urban rail rail_electric rail_fast ship" speed="16.67" length="11.32" shape="1658.99,1550.87 1658.22,1554.23 1657.56,1556.49 1656.69,1558.70 1655.33,1561.87"/>
        <lane id=":1204976113_0_1" index="1" disallow="tram rail_urban rail rail_electric rail_fast ship" speed="16.67" length="11.32" shape="1655.86,1550.19 1655.13,1553.38 1654.50,1555.52 1653.68,1557.61 1652.39,1560.61"/>
    </edge>
    <edge id=":1204976113_2" function="internal">
        <lane id=":1204976113_2_0" index="0" allow="pedestrian delivery bicycle" speed="7.89" length="2.76" shape="1655.86,1550.19 1654.66,1552.69"/>
    </edge>
    <edge id=":1204976113_8" function="internal">
        <lane id=":1204976113_8_0" index="0" allow="pedestrian delivery bicycle" speed="7.89" length="10.73" shape="1654.66,1552.69 1652.36,1554.19 1648.96,1554.71 1644.44,1554.24"/>
    </edge>
    <edge id=":1204976113_3" function="internal">
        <lane id=":1204976113_3_0" index="0" allow="pedestrian delivery bicycle" speed="5.38" length="5.74" shape="1645.04,1551.10 1646.79,1551.24 1648.14,1550.91 1649.08,1550.11 1649.60,1548.85"/>
    </edge>
    <edge id=":1204976113_4" function="internal">
        <lane id=":1204976113_4_0" index="0" allow="pedestrian delivery bicycle" speed="7.50" length="14.38" shape="1645.04,1551.10 1649.46,1552.44 1652.15,1554.48 1653.13,1557.20 1652.39,1560.61"/>
    </edge>
    <edge id=":1204976113_5" function="internal">
        <lane id=":1204976113_5_0" index="0" allow="pedestrian delivery bicycle" speed="4.84" length="5.28" shape="1646.50,1558.10 1646.89,1556.66 1646.67,1555.53 1645.86,1554.73 1644.44,1554.24"/>
    </edge>
    <edge id=":1204976113_6" function="internal">
        <lane id=":1204976113_6_0" index="0" disallow="tram rail_urban rail rail_electric rail_fast ship" speed="16.67" length="10.09" shape="1646.50,1558.10 1647.65,1555.43 1648.39,1553.58 1648.95,1551.67 1649.60,1548.85"/>
        <lane id=":1204976113_6_1" index="1" disallow="tram rail_urban rail rail_electric rail_fast ship" speed="16.67" length="10.09" shape="1649.44,1559.36 1650.66,1556.52 1651.44,1554.55 1652.04,1552.53 1652.73,1549.52"/>
    </edge>
    <edge id=":1241687100_0" function="internal">
        <lane id=":1241687100_0_0" index="0" disallow="pedestrian bicycle tram rail_urban rail rail_electric rail_fast ship" speed="3.65" length="4.67" shape="1177.20,601.40 1177.72,600.05 1178.41,599.49 1179.28,599.71 1180.32,600.70"/>
    </edge>
    <edge id=":1252356997_0" function="internal">
        <lane id=":1252356997_0_0" index="0" disallow="tram rail_urban rail rail_electric rail_fast ship" speed="13.89" length="23.16" shape="1047.16,815.70 1042.16,815.99 1035.64,816.73 1029.14,817.62 1024.16,818.33"/>
    </edge>
    <edge id=":1252356997_1" function="internal">
        <lane id=":1252356997_1_0" index="0" disallow="tram rail_urban rail rail_electric rail_fast ship" speed="13.89" length="3.79" shape="1047.16,815.70 1043.40,815.21"/>
    </edge>
    <edge id=":1252356997_2" function="internal">
        <lane id=":1252356997_2_0" index="0" disallow="tram rail_urban rail rail_electric rail_fast ship" speed="3.65" length="1.44" shape="1047.16,815.70 1045.97,814.89"/>
    </edge>
    <edge id=":1252356997_9" function="internal">
        <lane id=":1252356997_9_0" index="0" disallow="tram rail_urban rail rail_electric rail_fast ship" speed="13.89" length="19.97" shape="1043.40,815.21 1042.12,815.04 1035.53,813.54 1028.98,811.78 1024.04,810.38"/>
    </edge>
    <edge id=":1252356997_10" function="internal">
        <lane id=":1252356997_10_0" index="0" disallow="tram rail_urban rail rail_electric rail_fast ship" speed="3.65" length="3.23" shape="1045.97,814.89 1045.58,814.08 1045.98,813.29 1047.19,812.50"/>
    </edge>
    <edge id=":1252356997_3" function="internal">
        <lane id=":1252356997_3_0" index="0" disallow="tram rail_urban rail rail_electric rail_fast ship" speed="13.89" length="22.91" shape="1024.92,807.30 1029.72,808.69 1035.98,810.40 1042.27,811.86 1047.19,812.50"/>
    </edge>
    <edge id=":1252356997_4" function="internal">
        <lane id=":1252356997_4_0" index="0" disallow="tram rail_urban rail rail_electric rail_fast ship" speed="6.19" length="15.19" shape="1024.92,807.30 1028.15,809.61 1029.04,813.12 1027.68,816.48 1024.16,818.33"/>
    </edge>
    <edge id=":1252356997_5" function="internal">
        <lane id=":1252356997_5_0" index="0" disallow="tram rail_urban rail rail_electric rail_fast ship" speed="3.65" length="4.67" shape="1024.92,807.30 1025.85,808.40 1026.02,809.28 1025.41,809.94 1024.04,810.38"/>
    </edge>
    <edge id=":1252356997_6" function="internal">
        <lane id=":1252356997_6_0" index="0" disallow="tram rail_urban rail rail_electric rail_fast ship" speed="5.68" length="12.46" shape="1023.71,815.16 1028.00,814.25 1029.48,813.15 1028.16,811.86 1024.04,810.38"/>
    </edge>
    <edge id=":1252356997_7" function="internal">
        <lane id=":1252356997_7_0" index="0" disallow="tram rail_urban rail rail_electric rail_fast ship" speed="13.89" length="23.64" shape="1023.71,815.16 1028.76,814.44 1035.43,813.55 1042.11,812.80 1047.19,812.50"/>
    </edge>
    <edge id=":1252356997_8" function="internal">
        <lane id=":1252356997_8_0" index="0" disallow="tram rail_urban rail rail_electric rail_fast ship" speed="3.65" length="1.44" shape="1023.71,815.16 1025.01,815.79"/>
    </edge>
    <edge id=":1252356997_11" function="internal">
        <lane id=":1252356997_11_0" index="0" disallow="tram rail_urban rail rail_electric rail_fast ship" speed="3.65" length="3.23" shape="1025.01,815.79 1025.52,816.52 1025.24,817.37 1024.16,818.33"/>
    </edge>
    <edge id=":1252357022_0" function="internal">
        <lane id=":1252357022_0_0" index="0" allow="pedestrian delivery bicycle" speed="5.94" length="7.05" shape="929.36,851.90 928.13,851.28 927.38,850.06 927.12,848.25 927.34,845.85"/>
    </edge>
    <edge id=":1252357022_1" function="internal">
        <lane id=":1252357022_1_0" index="0" disallow="tram rail_urban rail rail_electric rail_fast ship" speed="6.51" length="8.88" shape="921.01,850.45 923.43,850.46 925.30,849.69 926.60,848.16 927.34,845.85"/>
    </edge>
    <edge id=":1252357030_0" function="internal">
        <lane id=":1252357030_0_0" index="0" allow="pedestrian delivery bicycle" speed="5.04" length="5.00" shape="857.81,921.28 856.44,921.26 855.40,921.69 854.68,922.56 854.28,923.87"/>
    </edge>
    <edge id=":1252357030_1" function="internal">
        <lane id=":1252357030_1_0" index="0" allow="pedestrian delivery bicycle" speed="7.65" length="12.83" shape="857.81,921.28 853.76,920.26 851.00,918.65 849.52,916.45 849.33,913.65"/>
    </edge>
    <edge id=":1252357030_2" function="internal">
        <lane id=":1252357030_2_0" index="0" allow="pedestrian delivery bicycle" speed="5.05" length="5.01" shape="855.67,914.58 855.66,915.95 856.10,916.99 856.98,917.71 858.30,918.11"/>
    </edge>
    <edge id=":1252357030_3" function="internal">
        <lane id=":1252357030_3_0" index="0" disallow="tram rail_urban rail rail_electric rail_fast ship" speed="16.67" length="9.39" shape="855.67,914.58 854.28,923.87"/>
        <lane id=":1252357030_3_1" index="1" disallow="tram rail_urban rail rail_electric rail_fast ship" speed="16.67" length="9.39" shape="852.50,914.12 851.12,923.39"/>
    </edge>
    <edge id=":1252357030_5" function="internal">
        <lane id=":1252357030_5_0" index="0" disallow="tram rail_urban rail rail_electric rail_fast ship" speed="16.67" length="9.36" shape="844.79,922.44 846.17,913.19"/>
        <lane id=":1252357030_5_1" index="1" disallow="tram rail_urban rail rail_electric rail_fast ship" speed="16.67" length="9.36" shape="847.95,922.92 849.33,913.65"/>
    </edge>
    <edge id=":1252357030_7" function="internal">
        <lane id=":1252357030_7_0" index="0" allow="pedestrian delivery bicycle" speed="7.64" length="2.82" shape="847.95,922.92 848.95,920.28"/>
    </edge>
    <edge id=":1252357030_8" function="internal">
        <lane id=":1252357030_8_0" index="0" allow="pedestrian delivery bicycle" speed="7.64" length="10.03" shape="848.95,920.28 851.01,918.60 854.12,917.87 858.30,918.11"/>
    </edge>
    <edge id=":1268520242_0" function="internal">
        <lane id=":1268520242_0_0" index="0" disallow="tram rail_urban rail rail_electric rail_fast ship" speed="6.42" length="9.04" shape="1635.87,1103.30 1633.38,1103.30 1631.52,1104.10 1630.28,1105.71 1629.68,1108.12"/>
    </edge>
    <edge id=":1268520242_1" function="internal">
        <lane id=":1268520242_1_0" index="0" disallow="tram rail_urban rail rail_electric rail_fast ship" speed="16.67" length="14.40" shape="1635.87,1103.30 1621.63,1101.18"/>
    </edge>
    <edge id=":1268520242_2" function="internal">
        <lane id=":1268520242_2_0" index="0" disallow="tram rail_urban rail rail_electric rail_fast ship" speed="16.67" length="14.38" shape="1622.11,1098.02 1636.33,1100.14"/>
    </edge>
    <edge id=":1268520242_3" function="internal">
        <lane id=":1268520242_3_0" index="0" disallow="tram rail_urban rail rail_electric rail_fast ship" speed="8.16" length="3.97" shape="1622.11,1098.02 1625.76,1099.13 1625.88,1099.23"/>
    </edge>
    <edge id=":1268520242_6" function="internal">
        <lane id=":1268520242_6_0" index="0" disallow="tram rail_urban rail rail_electric rail_fast ship" speed="8.16" length="10.28" shape="1625.88,1099.23 1628.24,1101.19 1629.55,1104.19 1629.68,1108.12"/>
    </edge>
    <edge id=":1268520242_4" function="internal">
        <lane id=":1268520242_4_0" index="0" disallow="tram rail_urban rail rail_electric rail_fast ship" speed="6.70" length="9.26" shape="1626.50,1107.79 1626.41,1105.21 1625.58,1103.25 1623.98,1101.90 1621.63,1101.18"/>
    </edge>
    <edge id=":1268520242_5" function="internal">
        <lane id=":1268520242_5_0" index="0" disallow="tram rail_urban rail rail_electric rail_fast ship" speed="7.93" length="14.36" shape="1626.50,1107.79 1627.46,1103.96 1629.42,1101.40 1632.37,1100.13 1636.33,1100.14"/>
    </edge>
    <edge id=":1268520263_0" function="internal">
        <lane id=":1268520263_0_0" index="0" disallow="tram rail_urban rail rail_electric rail_fast ship" speed="16.67" length="14.71" shape="1712.33,1190.54 1709.89,1205.09"/>
        <lane id=":1268520263_0_1" index="1" disallow="tram rail_urban rail rail_electric rail_fast ship" speed="16.67" length="14.71" shape="1709.17,1190.05 1706.74,1204.53"/>
    </edge>
    <edge id=":1268520263_2" function="internal">
        <lane id=":1268520263_2_0" index="0" disallow="tram rail_urban rail rail_electric rail_fast ship" speed="9.26" length="3.36" shape="1709.17,1190.05 1707.94,1193.18"/>
    </edge>
    <edge id=":1268520263_8" function="internal">
        <lane id=":1268520263_8_0" index="0" disallow="tram rail_urban rail rail_electric rail_fast ship" speed="9.26" length="13.64" shape="1707.94,1193.18 1707.88,1193.33 1705.19,1195.68 1701.08,1197.11 1695.55,1197.62"/>
    </edge>
    <edge id=":1268520263_3" function="internal">
        <lane id=":1268520263_3_0" index="0" disallow="tram rail_urban rail rail_electric rail_fast ship" speed="7.23" length="9.99" shape="1695.53,1194.42 1698.42,1194.07 1700.61,1193.06 1702.08,1191.40 1702.84,1189.08"/>
    </edge>
    <edge id=":1268520263_4" function="internal">
        <lane id=":1268520263_4_0" index="0" disallow="tram rail_urban rail rail_electric rail_fast ship" speed="8.40" length="17.94" shape="1695.53,1194.42 1701.11,1195.02 1704.84,1196.90 1706.72,1200.07 1706.74,1204.53"/>
    </edge>
    <edge id=":1268520263_5" function="internal">
        <lane id=":1268520263_5_0" index="0" disallow="tram rail_urban rail rail_electric rail_fast ship" speed="6.15" length="9.06" shape="1700.44,1203.41 1700.52,1200.86 1699.74,1199.05 1698.08,1197.97 1695.55,1197.62"/>
    </edge>
    <edge id=":1268520263_6" function="internal">
        <lane id=":1268520263_6_0" index="0" disallow="tram rail_urban rail rail_electric rail_fast ship" speed="16.67" length="14.57" shape="1700.44,1203.41 1702.84,1189.08"/>
        <lane id=":1268520263_6_1" index="1" disallow="tram rail_urban rail rail_electric rail_fast ship" speed="16.67" length="14.57" shape="1703.59,1203.97 1706.01,1189.56"/>
    </edge>
    <edge id=":1268520278_0" function="internal">
        <lane id=":1268520278_0_0" index="0" disallow="tram rail_urban rail rail_electric rail_fast ship" speed="15.28" length="21.65" shape="1438.53,812.97 1434.64,817.77 1431.57,821.09 1429.36,824.74 1428.01,830.52"/>
        <lane id=":1268520278_0_1" index="1" disallow="tram rail_urban rail rail_electric rail_fast ship" speed="15.28" length="21.65" shape="1435.91,811.13 1431.93,816.16 1428.67,819.98 1426.27,824.13 1424.83,830.13"/>
    </edge>
    <edge id=":1268520278_2" function="internal">
        <lane id=":1268520278_2_0" index="0" disallow="pedestrian bicycle tram rail_urban rail rail_electric rail_fast ship" speed="19.45" length="24.87" shape="1418.48,829.35 1420.07,822.17 1422.44,815.66 1424.68,810.08 1425.89,805.68"/>
    </edge>
    <edge id=":1268520278_3" function="internal">
        <lane id=":1268520278_3_0" index="0" disallow="tram rail_urban rail rail_electric rail_fast ship" speed="15.28" length="24.35" shape="1421.65,829.74 1422.77,823.23 1424.46,817.95 1427.01,813.00 1430.66,807.46"/>
        <lane id=":1268520278_3_1" index="1" disallow="tram rail_urban rail rail_electric rail_fast ship" speed="15.28" length="23.90" shape="1421.65,829.74 1423.18,823.51 1425.77,818.87 1429.22,814.55 1433.28,809.30"/>
    </edge>
    <edge id=":1268520316_0" function="internal">