<?xml version="1.0" encoding="UTF-8"?>

<!-- generated on 2022-07-29 00:22:59 by Eclipse SUMO polyconvert Version 1.14.1
<configuration xmlns:xsi="http://www.w3.org/2001/XMLSchema-instance" xsi:noNamespaceSchemaLocation="http://sumo.dlr.de/xsd/polyconvertConfiguration.xsd">

    <input>
        <net-file value="cleared.net.xml"/>
        <osm-files value="map.osm"/>
        <type-file value="typemap.xml"/>
    </input>

    <output>
        <output-file value="cleared.poly.xml"/>
    </output>

    <report>
        <xml-validation value="never"/>
    </report>

</configuration>
-->

<additional xmlns:xsi="http://www.w3.org/2001/XMLSchema-instance" xsi:noNamespaceSchemaLocation="http://sumo.dlr.de/xsd/additional_file.xsd">
    <location netOffset="-641968.70,-5308119.71" convBoundary="0.00,-0.00,2224.26,2124.05" origBoundary="106.900332,47.910440,106.930167,47.929436" projParameter="+proj=utm +zone=48 +ellps=WGS84 +datum=WGS84 +units=m +no_defs"/>

    <poly id="1007932639" type="building" color="255,230,230" fill="1" layer="-1.00" shape="1083.226591,1450.768376 1097.162150,1452.771201 1104.650283,1401.034709 1090.707406,1399.020570 1083.226591,1450.768376"/>
    <poly id="1007932644" type="building" color="255,230,230" fill="1" layer="-1.00" shape="1043.728467,1161.274213 1044.910756,1148.870660 1069.513063,1151.215852 1073.042711,1114.405122 1049.551436,1112.165329 1050.701127,1100.172433 1096.758787,1104.573565 1090.889346,1165.780532 1043.728467,1161.274213"/>
    <poly id="1007932645" type="building" color="255,230,230" fill="1" layer="-1.00" shape="948.299485,1104.650086 1040.869418,1114.107358 1042.320760,1099.897815 1042.285283,1099.218576 1041.799640,1098.606014 1040.976743,1098.329826 1039.956605,1098.471330 1039.393028,1098.891055 1039.132162,1099.462857 1003.301155,1095.338039 1003.356975,1094.594341 988.392972,1093.333606 988.262724,1094.064338 972.307331,1092.690097 971.445730,1092.768820 970.919236,1093.200591 970.629321,1093.738314 964.634245,1093.133729 964.411442,1092.472088 963.824539,1092.023832 962.912266,1091.734319 954.143629,1090.838568 954.049999,1089.790907 953.529748,1089.066289 952.306188,1088.668975 950.957343,1088.802345 950.270110,1089.385823 949.766643,1090.396440 948.299485,1104.650086"/>
    <poly id="1007932646" type="building" color="255,230,230" fill="1" layer="-1.00" shape="908.350922,1086.901096 907.530412,1095.577096 906.941336,1095.518014 903.988438,1126.593725 923.833464,1128.464532 925.959562,1106.020187 938.772007,1107.227426 940.412020,1089.919889 908.350922,1086.901096"/>
    <poly id="1007932649" type="building" color="255,230,230" fill="1" layer="-1.00" shape="905.565888,1132.015205 903.418795,1158.929529 884.096292,1157.394233 882.365092,1178.992084 939.958836,1183.588893 940.978997,1170.780967 918.172491,1168.970139 921.023957,1133.243492 905.565888,1132.015205"/>
    <poly id="1007932650" type="building" color="255,230,230" fill="1" layer="-1.00" shape="1027.439506,1278.226320 1028.869832,1246.178736 1048.597024,1247.057332 1048.903541,1240.125652 1045.431723,1239.961677 1046.802760,1209.102533 1077.924494,1210.486326 1076.554117,1241.312124 1054.109049,1240.310400 1053.790092,1247.441943 1073.965229,1248.342860 1072.538513,1280.234845 1027.439506,1278.226320"/>
    <poly id="1007939128" type="building" color="255,230,230" fill="1" layer="-1.00" shape="1180.003211,1349.592988 1223.986625,1356.167855 1225.957506,1343.027704 1208.448941,1340.413163 1208.664113,1338.972821 1182.188881,1335.023594 1180.003211,1349.592988"/>
    <poly id="1009413336" type="building" color="255,230,230" fill="1" layer="-1.00" shape="1221.660328,1710.692574 1273.856607,1717.216210 1272.027761,1733.962982 1219.602831,1727.322469 1221.660328,1710.692574"/>
    <poly id="1009413337" type="landuse" color="194,194,130" fill="1" layer="-3.00" shape="1010.860179,1732.349389 1040.911450,1736.998270 1041.687915,1732.213412 1012.862819,1728.150977 1010.860179,1732.349389"/>
    <poly id="1009413338" type="landuse" color="194,194,130" fill="1" layer="-3.00" shape="943.940061,1714.342404 927.057741,1689.525147 931.627816,1686.079839 938.255573,1695.207399 941.712283,1701.998853 944.224295,1709.812227 945.263595,1714.319617 943.940061,1714.342404"/>
    <poly id="1009413339" type="landuse" color="194,194,130" fill="1" layer="-3.00" shape="925.217190,1687.488922 930.247885,1683.854861 917.685985,1666.562220 912.647539,1670.207221 925.217190,1687.488922"/>
    <poly id="1009413340" type="landuse" color="194,194,130" fill="1" layer="-3.00" shape="911.247698,1668.181926 916.150035,1664.600274 898.189228,1639.255951 896.267923,1637.762647 894.182344,1636.865787 891.439203,1636.564265 889.192787,1637.331517 911.247698,1668.181926"/>
    <poly id="1009413341" type="landuse" color="194,194,130" fill="1" layer="-3.00" shape="885.013110,1631.055973 844.963541,1575.594668 850.129250,1571.641382 886.110813,1622.653732 886.804061,1624.539181 886.875135,1626.798432 886.432438,1628.978227 885.013110,1631.055973"/>
    <poly id="1009413342" type="landuse" color="194,194,130" fill="1" layer="-3.00" shape="842.589622,1572.155179 847.299459,1568.802231 828.715984,1542.619802 826.973633,1541.142077 825.011971,1540.370641 822.541868,1540.209365 820.202721,1540.796418 842.589622,1572.155179"/>
    <poly id="1009413346" type="landuse" color="194,194,130" fill="1" layer="-3.00" shape="814.644255,1532.240410 788.956411,1496.829957 790.334370,1495.818744 798.863352,1507.573194 812.734878,1520.305158 817.616465,1527.521041 817.699371,1529.002138 817.097786,1530.355075 815.866753,1531.470006 814.644255,1532.240410"/>
    <poly id="1009413347" type="landuse" color="194,194,130" fill="1" layer="-3.00" shape="753.780004,1444.325828 753.292730,1448.005811 779.893712,1485.195755 781.393670,1484.087475 773.626724,1471.440034 766.708108,1455.321734 764.785050,1451.782239 762.014286,1448.366324 759.058342,1446.391507 756.279284,1445.121670 753.780004,1444.325828"/>
    <poly id="1009413348" type="landuse" color="194,194,130" fill="1" layer="-3.00" shape="755.786908,1431.497833 759.926775,1402.864637 766.385047,1404.069886 762.666687,1427.753716 761.239850,1429.531048 759.854137,1430.553197 758.029569,1431.186379 755.786908,1431.497833"/>
    <poly id="1009413349" type="landuse" color="194,194,130" fill="1" layer="-3.00" shape="760.265128,1400.671131 766.921165,1401.436452 769.825541,1381.646930 770.308411,1355.202917 771.955774,1343.011020 768.215558,1342.217809 760.265128,1400.671131"/>
    <poly id="1009413350" type="landuse" color="194,194,130" fill="1" layer="-3.00" shape="795.773644,1340.175683 800.220453,1314.852938 794.789726,1314.106807 792.069252,1334.012080 792.154412,1335.704525 792.730369,1337.197832 793.358580,1338.392176 794.244084,1339.459445 795.773644,1340.175683"/>
    <poly id="1009413351" type="landuse" color="194,194,130" fill="1" layer="-3.00" shape="795.154204,1310.557233 800.667620,1310.982913 801.025848,1308.289473 806.297751,1304.583424 807.047756,1297.540401 804.435728,1298.276394 802.011599,1299.272816 799.946086,1300.578378 798.261600,1302.193634 796.950357,1303.829254 795.970561,1305.361876 795.342775,1307.470369 795.154204,1310.557233"/>
    <poly id="1009413352" type="landuse" color="194,194,130" fill="1" layer="-3.00" shape="795.296042,1348.293034 790.290443,1384.711452 788.117942,1384.301790 789.340198,1377.203736 787.895583,1361.587962 789.535825,1351.797947 790.194980,1350.535399 791.351891,1349.396384 792.574423,1348.625975 793.830492,1348.312342 795.296042,1348.293034"/>
    <poly id="1009413353" type="landuse" color="194,194,130" fill="1" layer="-3.00" shape="787.876561,1398.274441 784.289697,1429.623630 791.606314,1457.739847 827.179185,1506.895617 823.068571,1510.196702 796.606102,1473.465917 792.522481,1467.226192 788.473845,1459.875275 785.215382,1452.610652 782.927873,1446.281969 781.770239,1439.603165 780.777928,1434.096122 780.628684,1426.841777 782.475276,1418.980739 786.290674,1398.324133 787.876561,1398.274441"/>
    <poly id="1009413354" type="landuse" color="194,194,130" fill="1" layer="-3.00" shape="824.547791,1511.434374 859.389276,1559.916139 863.650690,1556.863470 828.801475,1508.392608 824.547791,1511.434374"/>
    <poly id="1009413355" type="landuse" color="194,194,130" fill="1" layer="-3.00" shape="862.052523,1562.840134 866.065534,1560.159414 871.827445,1568.042159 869.951443,1568.640668 868.404052,1568.646806 866.773631,1568.383991 865.505316,1567.685325 862.052523,1562.840134"/>
    <poly id="1009413356" type="landuse" color="194,194,130" fill="1" layer="-3.00" shape="877.563350,1576.068834 877.373672,1577.087233 877.408127,1578.411443 878.045413,1579.539300 886.453841,1592.225040 889.768596,1602.638267 905.093060,1623.680242 909.807610,1620.438669 877.563350,1576.068834"/>
    <poly id="1009413357" type="landuse" color="194,194,130" fill="1" layer="-3.00" shape="906.525273,1625.606252 911.400580,1622.513232 930.420643,1649.752124 925.911954,1653.132231 906.525273,1625.606252"/>
    <poly id="1009413358" type="landuse" color="194,194,130" fill="1" layer="-3.00" shape="927.369931,1655.525953 932.815385,1652.046743 945.447566,1669.519090 949.820774,1669.794332 952.986384,1667.526367 957.840453,1673.729723 940.732361,1671.581829 939.306689,1671.201742 937.949012,1670.189464 927.369931,1655.525953"/>
    <poly id="1009413359" type="landuse" color="194,194,130" fill="1" layer="-3.00" shape="983.633349,1701.514858 982.841129,1693.977651 982.659289,1693.172454 982.125568,1692.692150 960.987439,1679.145668 959.043290,1678.574789 956.576280,1678.291203 947.769320,1678.072831 946.738264,1678.658902 946.234536,1679.380375 946.184541,1680.190943 946.428075,1680.919823 952.051749,1686.530621 960.548355,1693.235763 968.394923,1698.423511 978.051296,1702.666416 980.049103,1703.183029 981.636041,1703.389196 982.734077,1703.116171 983.377804,1702.476017 983.633349,1701.514858"/>
    <poly id="1009413360" type="landuse" color="194,194,130" fill="1" layer="-3.00" shape="1044.171159,1711.357070 1023.947658,1708.253095 1007.118343,1709.937419 993.689932,1707.702709 991.253311,1706.797105 990.233723,1705.715355 989.810039,1704.414851 990.046456,1703.019513 995.043822,1703.743976 995.487963,1701.808878 1044.500836,1710.119737 1044.171159,1711.357070"/>
    <poly id="1009414558" type="parking" color="184,184,179" fill="1" layer="-1.00" shape="1484.616270,1063.790522 1413.727705,1052.385417 1412.385411,1060.670298 1483.273599,1072.086503 1484.616270,1063.790522"/>
    <poly id="1009414559" type="parking" color="184,184,179" fill="1" layer="-1.00" shape="1531.715528,1071.101301 1492.212285,1064.646779 1490.855768,1072.897932 1530.366702,1079.341518 1531.715528,1071.101301"/>
    <poly id="1009414560" type="parking" color="184,184,179" fill="1" layer="-1.00" shape="1544.370824,1072.317096 1543.645356,1077.737052 1548.435986,1081.681825 1601.483881,1088.752050 1602.648812,1080.095800 1544.370824,1072.317096"/>
    <poly id="1009540368" type="building" color="255,230,230" fill="1" layer="-1.00" shape="1421.716671,1643.570508 1426.237001,1622.308998 1411.076288,1619.096087 1406.548266,1640.368535 1421.716671,1643.570508"/>
    <poly id="1009540369" type="building" color="255,230,230" fill="1" layer="-1.00" shape="1435.427335,1705.664787 1436.427368,1698.817081 1440.598202,1670.273953 1423.044229,1667.724305 1417.866000,1703.114967 1422.126027,1703.732494 1435.427335,1705.664787"/>
    <poly id="1009540370" type="building" color="255,230,230" fill="1" layer="-1.00" shape="1394.255069,1734.332825 1399.418474,1698.930658 1381.864577,1696.381134 1376.686615,1731.771829 1381.021046,1732.402298 1394.255069,1734.332825"/>
    <poly id="1013455340" type="landuse" color="194,194,130" fill="1" layer="-3.00" shape="1441.154582,718.791250 1445.555023,717.099154 1451.799415,714.007241 1456.835988,711.085461 1460.352339,708.570695 1462.965800,706.289246 1460.290576,705.944680 1458.938302,705.911041 1457.343634,706.004821 1455.549740,706.293818 1453.585953,706.801002 1451.790409,707.456941 1450.151205,708.139011 1448.504538,709.121153 1446.619079,710.386494 1445.098600,711.705396 1443.805028,713.218994 1442.707371,714.971000 1441.732577,716.892871 1441.154582,718.791250"/>
    <poly id="1013455341" type="landuse" color="194,194,130" fill="1" layer="-3.00" shape="1461.636165,716.765206 1462.798900,717.205595 1464.303931,718.010362 1465.384490,718.748966 1466.408881,719.641862 1466.918864,720.177220 1467.387062,720.589212 1467.809874,720.722058 1468.236833,720.688197 1468.719408,720.522271 1469.079121,720.186479 1469.490573,719.573957 1469.732125,718.879364 1469.931320,717.182857 1470.831840,708.931478 1471.174640,706.871561 1471.315750,706.307917 1471.408439,705.887638 1471.428358,705.687961 1471.388785,705.475684 1471.273671,705.294889 1471.103770,705.212818 1470.864694,705.206870 1470.653843,705.268349 1470.493908,705.386697 1470.255391,705.658780 1469.760097,706.335940 1469.010790,707.307039 1468.173766,708.198112 1466.717757,709.629819 1463.752877,711.913645 1462.166254,712.886157 1461.106757,713.704972 1460.634148,714.071318 1460.371836,714.398413 1460.134985,714.904072 1460.057792,715.302496 1460.224105,715.829305 1460.654671,716.251480 1461.110416,716.563076 1461.636165,716.765206"/>
    <poly id="1013455342" type="landuse" color="194,194,130" fill="1" layer="-3.00" shape="1440.687250,730.967882 1445.831823,732.419204 1447.762697,732.934300 1448.536650,733.075879 1449.047172,732.988492 1449.456140,732.776251 1449.786520,732.417487 1450.068472,731.901829 1450.116035,730.590773 1450.024944,728.242045 1449.913906,724.891961 1449.867116,723.767609 1449.686676,722.606571 1449.474153,722.134216 1448.964729,721.876890 1448.571248,721.767016 1447.828844,721.859757 1447.060709,722.085305 1445.426217,722.878700 1441.549587,724.550462 1438.332336,725.560267 1436.225777,726.097268 1434.457897,726.242349 1432.504070,726.349444 1430.454777,726.387441 1429.610542,726.366444 1428.699068,726.343775 1428.488771,726.383028 1428.344333,726.479522 1428.220649,726.643256 1428.155905,726.841818 1428.172514,727.075765 1428.264110,727.300456 1428.474967,727.539234 1428.753617,727.757457 1429.249206,727.969955 1429.909988,728.153199 1430.556656,728.302730 1436.498706,729.851722 1440.687250,730.967882"/>
    <poly id="104431533" type="tourism" color="207,245,201" fill="1" layer="-2.00" shape="1419.695925,778.142363 1412.663899,831.246617 1225.857171,805.041067 1216.031916,742.521400 1216.154593,739.688680 1216.858416,737.837889 1218.220798,735.958970 1220.102018,734.259747 1223.274632,732.637078 1229.525725,732.881293 1268.991066,739.155026 1330.807142,748.798018 1380.619503,757.142366 1409.783056,762.215700 1411.406789,763.056767 1413.283173,764.560237 1415.174230,766.375451 1416.850025,768.730225 1417.963547,770.848603 1418.749992,772.591865 1419.265268,774.417349 1419.659901,776.284315 1419.695925,778.142363"/>
    <poly id="104431541" type="landuse" color="194,194,130" fill="0" layer="-3.00" shape="1581.621446,799.653353 1747.279513,840.233891 1736.325436,898.811595 1571.327295,869.323927 1566.498313,868.414136 1569.796015,850.058139 1537.954264,844.783859 1508.142353,839.949494 1434.936969,828.108497 1435.278841,822.779077 1463.485616,780.354743 1477.563140,774.310579 1581.630024,799.609083"/>
    <poly id="104431541#1" type="tourism" color="207,245,201" fill="0" layer="-2.00" shape="1581.621446,799.653353 1747.279513,840.233891 1736.325436,898.811595 1571.327295,869.323927 1566.498313,868.414136 1569.796015,850.058139 1537.954264,844.783859 1508.142353,839.949494 1434.936969,828.108497 1435.278841,822.779077 1463.485616,780.354743 1477.563140,774.310579 1581.630024,799.609083"/>
    <poly id="1062841007" type="landuse" color="194,194,130" fill="1" layer="-3.00" shape="721.842923,1038.044042 804.766910,1048.570961 805.387722,1043.726624 722.455920,1033.210626 721.842923,1038.044042"/>
    <poly id="1062841008" type="landuse" color="194,194,130" fill="1" layer="-3.00" shape="811.140298,1042.957198 822.831271,1044.781395 827.106831,1017.630644 821.573987,1016.770765 821.946113,1014.422410 815.780456,1013.457899 811.140298,1042.957198"/>
    <poly id="1062841009" type="building" color="255,230,230" fill="1" layer="-1.00" shape="790.630990,1033.486080 725.745334,1024.440032 727.516262,1011.784122 792.401509,1020.852415 790.630990,1033.486080"/>
    <poly id="1062841010" type="building" color="255,230,230" fill="1" layer="-1.00" shape="811.681149,1027.457324 799.626315,1025.835433 806.987759,971.571171 819.049901,973.204374 811.681149,1027.457324"/>
    <poly id="1062841011" type="leisure" color="207,245,201" fill="1" layer="-2.00" shape="768.130195,973.411401 780.219471,975.156400 781.706690,964.906652 769.617116,963.172763 768.130195,973.411401"/>
    <poly id="1062841012" type="leisure" color="207,245,201" fill="1" layer="-2.00" shape="739.507310,992.731056 776.865234,998.315444 778.521120,987.291427 782.460048,986.710598 783.349272,980.082486 779.735587,979.603788 781.706690,964.906652 749.934762,951.687209 743.292752,967.547599 739.507310,992.731056"/>
    <poly id="1062846376" type="amenity" color="237,199,199" fill="1" layer="-1.00" shape="827.885307,1273.502179 829.819183,1239.187340 853.168488,1240.499729 857.004764,1238.926679 862.709209,1239.790853 862.218756,1242.992564 863.540683,1244.849100 875.859397,1245.154330 875.082529,1276.506385 871.900150,1276.427530 855.480507,1275.709324 836.622693,1274.441458 827.885307,1273.502179"/>
    <poly id="1062846376#1" type="building" color="255,230,230" fill="1" layer="-1.00" shape="827.885307,1273.502179 829.819183,1239.187340 853.168488,1240.499729 857.004764,1238.926679 862.709209,1239.790853 862.218756,1242.992564 863.540683,1244.849100 875.859397,1245.154330 875.082529,1276.506385 871.900150,1276.427530 855.480507,1275.709324 836.622693,1274.441458 827.885307,1273.502179"/>
    <poly id="108195335" type="farm" color="242,242,204" fill="1" layer="-3.00" shape="1159.331902,691.204137 1167.471727,689.749226 1173.622681,685.898494 1178.299193,680.009445 1179.109876,675.058642 1178.650462,670.076307 1161.609501,672.633593 1156.243906,633.099955 1171.639220,636.006514 1170.471377,626.736265 1169.055973,622.619851 1165.414989,618.715084 1159.208696,616.058877 1144.324860,611.819450 1123.754987,605.948786 1124.151717,687.261647 1127.900192,689.545443 1159.331902,691.204137"/>
    <poly id="108195335#1" type="tourism" color="207,245,201" fill="1" layer="-2.00" shape="1159.331902,691.204137 1167.471727,689.749226 1173.622681,685.898494 1178.299193,680.009445 1179.109876,675.058642 1178.650462,670.076307 1161.609501,672.633593 1156.243906,633.099955 1171.639220,636.006514 1170.471377,626.736265 1169.055973,622.619851 1165.414989,618.715084 1159.208696,616.058877 1144.324860,611.819450 1123.754987,605.948786 1124.151717,687.261647 1127.900192,689.545443 1159.331902,691.204137"/>
    <poly id="109382870" type="building" color="255,230,230" fill="1" layer="-1.00" shape="758.682338,954.650551 766.472019,955.844255 767.836905,957.479415 772.431520,958.193683 773.599645,959.623802 779.195618,960.351747 785.005094,960.306541 789.138000,939.212977 776.347810,937.695261 770.737231,937.556351 769.989542,935.146907 762.416403,933.358047 758.682338,954.650551"/>
    <poly id="109382870#1" type="shop" color="237,199,255" fill="1" layer="-1.00" shape="758.682338,954.650551 766.472019,955.844255 767.836905,957.479415 772.431520,958.193683 773.599645,959.623802 779.195618,960.351747 785.005094,960.306541 789.138000,939.212977 776.347810,937.695261 770.737231,937.556351 769.989542,935.146907 762.416403,933.358047 758.682338,954.650551"/>
    <poly id="109382879" type="building" color="255,230,230" fill="1" layer="-1.00" shape="916.775136,925.549348 924.835250,860.938079 909.944994,859.090011 901.892518,923.701482 916.775136,925.549348"/>
    <poly id="109382897" type="building" color="255,230,230" fill="1" layer="-1.00" shape="1003.769206,797.627933 1024.791459,803.620623 1027.868475,792.887678 1006.846184,786.894977 1003.769206,797.627933"/>
    <poly id="109382909" type="building" color="255,230,230" fill="1" layer="-1.00" shape="955.042710,821.174369 987.239145,820.905002 987.073793,800.438936 954.877245,800.708306 955.042710,821.174369"/>
    <poly id="111314444" type="tourism" color="207,245,201" fill="1" layer="-2.00" shape="1341.077173,1233.636378 1340.405272,1238.112426 1347.894283,1239.355067 1341.953647,1278.663531 1328.905205,1288.470095 1314.112393,1299.590053 1171.747883,1278.971978 1163.378055,1266.842813 1155.768046,1256.022522 1161.819629,1214.904012 1170.848165,1216.162402 1171.802275,1209.346888 1225.055134,1216.251966 1227.708779,1220.766146 1249.511298,1223.865507 1262.284189,1225.750857 1278.342703,1228.073739 1282.687879,1225.279217 1341.077173,1233.636378"/>
    <poly id="111527417" type="building" color="255,230,230" fill="1" layer="-1.00" shape="778.522989,738.122936 795.299047,739.906137 796.544017,728.271438 779.760455,726.488049 778.522989,738.122936"/>
    <poly id="111978790" type="unknown" color="51,128,255" fill="0" layer="-1.00" shape="1347.183929,1059.549511 1374.519780,1064.110235 1349.827298,1226.547625 1347.894283,1239.355067 1341.953647,1278.663531 1328.905205,1288.470095 1314.112393,1299.590053 1171.747883,1278.971978 1163.378055,1266.842813 1155.768046,1256.022522 1161.819629,1214.904012 1188.109472,1036.391891 1217.632746,1040.472387"/>
    <poly id="125768806" type="building" color="255,230,230" fill="1" layer="-1.00" shape="800.616908,911.573345 798.442505,927.232936 810.340109,928.873162 805.890646,960.934929 819.777096,962.857964 826.393638,915.136439 800.616908,911.573345"/>
    <poly id="125768840" type="building" color="255,230,230" fill="1" layer="-1.00" shape="730.644371,917.113911 779.504543,924.929106 782.367026,907.140268 733.499234,899.324867 732.686478,904.375750 730.644371,917.113911"/>
    <poly id="125768840#1" type="shop" color="237,199,255" fill="1" layer="-1.00" shape="730.644371,917.113911 779.504543,924.929106 782.367026,907.140268 733.499234,899.324867 732.686478,904.375750 730.644371,917.113911"/>
    <poly id="125768843" type="building" color="255,230,230" fill="1" layer="-1.00" shape="779.719420,930.138876 795.457968,932.741582 798.991360,907.785443 783.548000,905.334607 779.719420,930.138876"/>
    <poly id="129230022" type="building" color="255,230,230" fill="1" layer="-1.00" shape="956.453500,1735.993205 951.719620,1767.447345 966.032087,1769.592680 968.376666,1754.015188 1033.460782,1763.758765 1023.035551,1832.993103 1038.382808,1835.297746 1050.240817,1756.524092 1036.211087,1754.430046 1037.168352,1748.081660 956.453500,1735.993205"/>
    <poly id="129230045" type="tourism" color="207,245,201" fill="1" layer="-2.00" shape="1182.813628,1796.246466 1131.677167,1787.403477 1135.548071,1765.158166 1141.673046,1766.222134 1143.032869,1758.415828 1188.036865,1766.205816 1182.813628,1796.246466"/>
    <poly id="129230051" type="leisure" color="207,245,201" fill="1" layer="-2.00" shape="732.031661,1616.601922 738.461650,1615.015173 744.491423,1616.309885 783.745169,1672.240065 783.939086,1678.594749 781.502639,1683.716623 763.649352,1697.475545 756.615883,1697.779567 750.600784,1695.895808 712.245404,1643.224199 711.351201,1637.074599 713.262213,1629.926858 732.031661,1616.601922"/>
    <poly id="129230051#1" type="sport" color="79,230,125" fill="1" layer="-2.00" shape="732.031661,1616.601922 738.461650,1615.015173 744.491423,1616.309885 783.745169,1672.240065 783.939086,1678.594749 781.502639,1683.716623 763.649352,1697.475545 756.615883,1697.779567 750.600784,1695.895808 712.245404,1643.224199 711.351201,1637.074599 713.262213,1629.926858 732.031661,1616.601922"/>
    <poly id="153837736" type="building" color="255,230,230" fill="1" layer="-1.00" shape="1306.102679,1740.915143 1362.223057,1748.927224 1364.244767,1734.053540 1321.863503,1728.696084 1330.706349,1659.823133 1318.000016,1658.005965 1306.102679,1740.915143"/>
    <poly id="153837806" type="building" color="255,230,230" fill="1" layer="-1.00" shape="1500.612690,1552.787126 1506.343616,1560.981151 1509.337723,1565.314903 1524.091832,1555.139750 1515.396969,1542.601581 1500.612690,1552.787126"/>
    <poly id="153837889" type="amenity" color="237,199,199" fill="1" layer="-1.00" shape="1333.163067,1557.396030 1383.312244,1564.837204 1385.984441,1548.155912 1375.188819,1546.441750 1350.731539,1542.541884 1368.531918,1438.405615 1353.298512,1436.292020 1333.163067,1557.396030"/>
    <poly id="153837889#1" type="building" color="255,230,230" fill="1" layer="-1.00" shape="1333.163067,1557.396030 1383.312244,1564.837204 1385.984441,1548.155912 1375.188819,1546.441750 1350.731539,1542.541884 1368.531918,1438.405615 1353.298512,1436.292020 1333.163067,1557.396030"/>
    <poly id="154431812" type="amenity" color="237,199,199" fill="1" layer="-1.00" shape="1096.599345,759.740632 1113.332890,760.823109 1114.158646,748.032620 1132.417976,749.086291 1132.453500,753.980257 1133.940408,759.733173 1138.648068,764.331638 1144.065539,766.234288 1148.935764,765.487766 1152.969375,762.907816 1156.455903,759.780496 1157.882564,755.612307 1158.606628,750.837282 1177.371220,752.014845 1175.577690,780.594868 1161.530189,779.723455 1160.640783,793.869082 1186.376532,795.486638 1186.129427,799.417213 1194.787509,799.965811 1195.628073,786.586298 1188.544700,786.143522 1191.654003,736.789434 1153.482754,734.396100 1153.703859,730.909706 1144.321528,730.320956 1135.066480,729.724259 1134.821894,733.554811 1098.443402,731.217460 1096.599345,759.740632"/>
    <poly id="154431812#1" type="building" color="255,230,230" fill="1" layer="-1.00" shape="1096.599345,759.740632 1113.332890,760.823109 1114.158646,748.032620 1132.417976,749.086291 1132.453500,753.980257 1133.940408,759.733173 1138.648068,764.331638 1144.065539,766.234288 1148.935764,765.487766 1152.969375,762.907816 1156.455903,759.780496 1157.882564,755.612307 1158.606628,750.837282 1177.371220,752.014845 1175.577690,780.594868 1161.530189,779.723455 1160.640783,793.869082 1186.376532,795.486638 1186.129427,799.417213 1194.787509,799.965811 1195.628073,786.586298 1188.544700,786.143522 1191.654003,736.789434 1153.482754,734.396100 1153.703859,730.909706 1144.321528,730.320956 1135.066480,729.724259 1134.821894,733.554811 1098.443402,731.217460 1096.599345,759.740632"/>
    <poly id="154635141" type="building" color="255,230,230" fill="1" layer="-1.00" shape="982.486846,762.626262 1015.346636,771.192148 1019.631746,754.850997 986.764396,746.284903 982.486846,762.626262"/>
    <poly id="154990393" type="landuse" color="194,194,130" fill="1" layer="-3.00" shape="1099.484608,632.614332 1097.671660,675.550622 1110.477275,676.468895 1112.954284,625.152999 1110.483365,619.887224 1061.818574,601.086986 1057.469185,612.778091 1097.830654,628.770034 1099.484608,632.614332"/>
    <poly id="155283677" type="building" color="255,230,230" fill="1" layer="-1.00" shape="1212.073849,660.475030 1214.515770,647.035200 1210.695524,647.340677 1212.752668,640.063253 1203.454391,607.782651 1219.198506,603.569660 1222.772198,598.442823 1240.575570,601.920915 1228.921199,662.706083 1212.073849,660.475030"/>
    <poly id="155283677#1" type="tourism" color="207,245,201" fill="1" layer="-2.00" shape="1212.073849,660.475030 1214.515770,647.035200 1210.695524,647.340677 1212.752668,640.063253 1203.454391,607.782651 1219.198506,603.569660 1222.772198,598.442823 1240.575570,601.920915 1228.921199,662.706083 1212.073849,660.475030"/>
    <poly id="155433050" type="building" color="255,230,230" fill="1" layer="-1.00" shape="1623.663937,1062.903923 1639.485686,1065.144054 1650.951615,984.471017 1635.151782,982.242532 1623.663937,1062.903923"/>
    <poly id="155433849" type="building" color="255,230,230" fill="1" layer="-1.00" shape="896.287522,1086.535416 862.442733,1082.494063 857.240846,1083.666301 849.445007,1089.367102 844.750229,1116.841076 860.757494,1119.739778 864.988514,1098.315066 880.893056,1100.232662 879.102976,1126.922302 892.903388,1127.775820 896.287522,1086.535416"/>
    <poly id="155433850" type="building" color="255,230,230" fill="1" layer="-1.00" shape="1139.281871,1138.134643 1110.864066,1136.517387 1108.534750,1177.361331 1125.666050,1178.331443 1125.718553,1177.420853 1137.004858,1178.067990 1139.281871,1138.134643"/>
    <poly id="155433850#1" type="tourism" color="207,245,201" fill="1" layer="-2.00" shape="1139.281871,1138.134643 1110.864066,1136.517387 1108.534750,1177.361331 1125.666050,1178.331443 1125.718553,1177.420853 1137.004858,1178.067990 1139.281871,1138.134643"/>
    <poly id="155433852" type="building" color="255,230,230" fill="1" layer="-1.00" shape="1090.896972,1219.693633 1092.009548,1206.187411 1110.429591,1207.634290 1112.257558,1206.567594 1114.857535,1206.320746 1117.709600,1206.458259 1120.112124,1207.540991 1121.646441,1208.969156 1122.904371,1210.690719 1123.648241,1212.644176 1123.723951,1215.014755 1123.414783,1217.231212 1122.399486,1218.985315 1121.098635,1220.498797 1119.049062,1221.760162 1116.308853,1222.537318 1113.431052,1222.232357 1111.359186,1221.380247 1109.828479,1220.107864 1106.529573,1219.903661 1106.385773,1220.878710 1090.896972,1219.693633"/>
    <poly id="155434227" type="amenity" color="237,199,199" fill="1" layer="-1.00" shape="870.769004,1316.044559 817.415332,1314.144512 816.350264,1343.865814 832.504361,1344.432771 832.932547,1332.277408 870.189034,1332.210711 870.769004,1316.044559"/>
    <poly id="155434227#1" type="building" color="255,230,230" fill="1" layer="-1.00" shape="870.769004,1316.044559 817.415332,1314.144512 816.350264,1343.865814 832.504361,1344.432771 832.932547,1332.277408 870.189034,1332.210711 870.769004,1316.044559"/>
    <poly id="155434228" type="amenity" color="237,199,199" fill="1" layer="-1.00" shape="949.012998,1262.814363 897.667778,1260.685372 897.094112,1274.482983 948.439484,1276.600858 949.012998,1262.814363"/>